<?xml version="1.0" encoding="UTF-8"?>

<!-- generated on 2026-03-31T21:56:36.745612+05:30 by Eclipse SUMO duarouter 1.26.0
<duarouterConfiguration xmlns:xsi="http://www.w3.org/2001/XMLSchema-instance" xsi:noNamespaceSchemaLocation="http://sumo.dlr.de/xsd/duarouterConfiguration.xsd">

    <input>
        <net-file value="map.net.xml"/>
        <route-files value="trips.trips.xml"/>
    </input>

    <output>
        <output-file value="routes.rou.xml"/>
    </output>

    <report>
        <ignore-errors value="true"/>
    </report>

</duarouterConfiguration>
-->

<routes xmlns:xsi="http://www.w3.org/2001/XMLSchema-instance" xsi:noNamespaceSchemaLocation="http://sumo.dlr.de/xsd/routes_file.xsd">
    <vehicle id="0" depart="0.00">
        <route edges="178782089#8 178782089#9 178782089#10 178782089#11 178782089#12 178782089#13 178782089#14 178782089#15 178782089#16 178782089#17 178782089#18 -240962299#11 -150789955#1 -150789955#0 1219515929 -1219515930"/>
    </vehicle>
    <vehicle id="1" depart="1.00">
        <route edges="-744797402#0 -666625335#4 -666625335#3 -666625335#2 -666625335#1 -857784453 334681603#7 334681603#8 334681603#9 -1366488762#0 -1366488760 -1366488759 -1366488758#5 586611478#0 586611478#1 586611478#2 586611478#3 -586611478#3"/>
    </vehicle>
    <vehicle id="2" depart="2.00">
        <route edges="365911688 365911690#0 365911690#1 365911690#2 365911690#3 -365910893#0 -188242398#3 857725596#0 -857725596#2 -890002801 -799306137#0 -188575025#1 -188575025#0 315285502 -188566088#5 -188566088#4 -188566088#3 959150189 959150332 959150331 959150627 959150626 959151061 959151128 959151127 -831858059#0 315285497#3 315285497#4 315285497#5 315285497#6 315285497#7 315285497#8 315285497#9 31858865#8 31858865#9"/>
    </vehicle>
    <vehicle id="3" depart="3.00">
        <route edges="887463504 -887463504 -1227307817#0 -844157574#0 -666614653#0 1426619893#1 1426619893#2 1426619893#3 1426619893#4 1426619893#5 177318029#0 177318029#1 177318029#2 -1252012275 1168586359 -177318029#3"/>
    </vehicle>
    <vehicle id="4" depart="4.00">
        <route edges="-888681172#0 888681171#2 888681171#3 -857786078#1 -857786078#0 857785941#1 177318037#1 177318037#2 177318037#3 177318037#4 177318037#5 177318037#6 177318037#7 177318037#8 -177318059 -150201803 -837232081#1 -837232081#0 365911684#0 1220218803#1 1220218803#2 -1220218803#2"/>
    </vehicle>
    <vehicle id="5" depart="5.00">
        <route edges="-365911687#3 365911690#0 365911690#1 365911690#2 365911690#3 -365910893#0 188242398#4 188242398#5 188242398#6 188242398#7 888902516 799306144#1 -799306137#4 -799306137#3 888902517 188575025#6 -918886808#5 888681169#0 888681169#1 888681170 -888681167#6 -888681167#5 -888681167#4 959597003 959597044 959597043#0 959597043#1 1020248261 1263634673#2 1263634673#3 -1272924922#1 -1272924922#0 1272924922#0"/>
    </vehicle>
    <vehicle id="6" depart="6.00">
        <route edges="-1219510488 -888702221#0 -758860818#2 -758860818#1 -758860818#0 -178782089#15 -178782089#14 -178782089#13 -178782089#12 -178782089#11 -178782089#10 -178782089#9 -178782089#8 -178782089#7 -178782089#6 -1414307087#2 -1414307087#1 -1414307087#0 -315285503#1 890002799#0 -890002800 188242398#1 188242398#2 188242398#3 188242398#4 188242398#5 188242398#6 188242398#7 188242398#8 188242398#9 188242398#10 -177318037#9 -177318037#8 -177318037#7 -177318037#6 -177318037#5 -177318037#4 -470866468#2 -470866468#1 -470866468#0 -1426685141#1 -1426685141#0 -1366488763 -1366488764 -1366488762#1 -334681603#9 -334681603#8 -334681603#7 -334681603#6 -334681603#5 -334681603#4 -334681603#3"/>
    </vehicle>
    <vehicle id="7" depart="7.00">
        <route edges="188237506#8 -188237506#8 -188237506#7 -188237506#6 -188237506#5 -188237506#4 -188237506#3 -1266727866 188240123#0 188240123#1 857729975 -843406141#2 -843406141#1 -843406141#0 -843406142 -843406139 -843406140 -843406137 -843406138 -188240135#1 -188240135#0 188240132#9 188240109#0 188240109#1 921472782 1168540700 1426619894#3"/>
    </vehicle>
    <vehicle id="8" depart="8.00">
        <route edges="-365911690#2 -365911690#1 -365911690#0 365911690#0 365911690#1 365911690#2 365911690#3 -365910893#0 -188242398#3 -188242398#2 -188242398#1 890002800 -890002799#0 315285503#1 1414307087#0 1414307087#1 1414307087#2 -178782089#5 -178782089#4 -178782089#3 178782089#3"/>
    </vehicle>
    <vehicle id="9" depart="9.00">
        <route edges="758860830 -758860830 745535001#3 745535001#4 745535001#5 745535001#6 178782089#20 178782089#21 178782089#22 178782089#23 -151570327#1 -151570327#0 27814172#1 151363594#0 151363594#1 -1031914318"/>
    </vehicle>
    <vehicle id="10" depart="10.00">
        <route edges="758322863#0 758322862#0 -758322866 334681603#1 334681603#2 334681603#3 334681603#4 334681603#5 334681603#6 334681603#7 334681603#8 334681603#9 -1366488762#0 -1366488760 -1366488759 -1366488758#5 586611478#0 586611478#1 586611478#2 586611478#3 586611478#4 586611478#5 586611478#6 1306278153 -522449322#2 -522449322#1 522449322#1"/>
    </vehicle>
    <vehicle id="11" depart="11.00">
        <route edges="-831858059#0 -315285497#2 -315285497#1 -315285497#0 -397239655 -397239657 -178789633#6 -178789633#5 -178789633#4 -178789633#3 -178789633#2 -178789633#1 -178789633#0 178782089#0 178782089#1 178782089#2 178782089#3 178782089#4 178782089#5 -1414307087#2 -1414307087#1 -1414307087#0 -188316237#2 -188316237#1"/>
    </vehicle>
    <vehicle id="12" depart="12.00">
        <route edges="959151923 -857726621#1 -857726621#0 -817146418#1 -817146418#0 -817146417#1 -817146417#0 -188566088#10 -188566088#9 -188566088#8 -188566088#7 -188566088#6 -315285502 -188575026 -315285501#6 -315285501#5 -315285501#4 -315285501#3 -1309445780 -844212628#0"/>
    </vehicle>
    <vehicle id="13" depart="13.00">
        <route edges="-151570327#1 -151570327#0 151570327#0 151570327#1 -178782089#23 -178782089#22 -178782089#21 -178782089#20 -178782089#19 -178782089#18 -178782089#17 -178782089#16 -178782089#15 -178782089#14 -178782089#13 -178782089#12 -178782089#11 -178782089#10 -178782089#9 -178782089#8 -178782089#7 -178782089#6 -178782089#5 -178782089#4 -178782089#3 -178782089#2 -178782089#1 -178782089#0 315285501#0 315285501#1 315285501#2 315285501#3 315285501#4 315285501#5 315285501#6 188575026 315285502 188566088#6 188566088#7 188566088#8 188566088#9 188566088#10 188566088#11 188566088#12 188566088#13 188566088#14 188566088#15 188566088#16 188566088#17 817138225#0 817138225#1 -959196950 -888677952#0 817507729 817507713#0 817507713#1 817507722#0 817507722#1 817507722#2 -754802540#1 -754802540#0 1168582834#9 1168582834#10 1168582834#11 1168582834#12 1168582834#13 -1426619896#8 -1426619896#7 -860142347#4 -860142347#3 -860142347#2 -860142347#1 -860142347#0 1414277825#0 1414277825#1 888685997#0 888685997#1 888685997#2 -177318060#1 -177318060#0"/>
    </vehicle>
    <vehicle id="14" depart="14.00">
        <route edges="837232082#0 837232082#1 837232082#2 837232081#0 837232081#1 150201803 177318059 -177318037#8 -177318037#7 -177318037#6 1414301922#0 1414301922#1 1414301922#2 1414301922#3 -177318037#1 -177318037#0 672802137#0 672802137#1 672802137#2 672802137#3 672802137#4 672802137#5 672802137#6 672802137#7 -188237543#3 -188237543#2 -188237543#1 888471604 188237538#1"/>
    </vehicle>
    <vehicle id="15" depart="15.00">
        <route edges="758322864#2 799302907 334681603#2 334681603#3 334681603#4 334681603#5 334681603#6 857784453 666625335#1 666625335#2"/>
    </vehicle>
    <vehicle id="16" depart="16.00">
        <route edges="1049857380 188575025#5 188575025#6 918886808#6 918886808#7 -794927748#1 -794927748#0 -794927749 -817138225#2 -959196950 -888677952#0 817507729 817507713#0 817507713#1 817507722#0 817507722#1 817507722#2 -754802540#1 -754802540#0 1168582834#9 1168582834#10 1168582834#11 1168582834#12 1168582834#13 -1426619896#8 -1426619896#7 -860142347#4 888703298#0 959597345"/>
    </vehicle>
    <vehicle id="17" depart="17.00">
        <route edges="-849820239#0 -178782089#16 -178782089#15 -178782089#14 -178782089#13 -178782089#12 -178782089#11 -178782089#10 -178782089#9 -178782089#8 -178782089#7 -178782089#6 -178782089#5 -178782089#4 -178782089#3 -178782089#2 -178782089#1 -178782089#0 315285501#0 315285501#1 315285501#2 315285501#3 315285501#4 315285501#5 315285501#6 188575026 315285502 188566088#6 188566088#7 188566088#8 188566088#9 188566088#10 188566088#11 188566088#12 188566088#13 188566088#14 188566088#15 188566088#16 188566088#17 817138225#0 817138225#1 817138225#2 794927749 794927748#0 794927748#1 1426619897#0"/>
    </vehicle>
    <vehicle id="18" depart="18.00">
        <route edges="799306142#0 -1069495737 -799306143#0 188242398#2 857725596#0 -857725596#2 -890002801 -799306137#0 188575025#2 188575025#3 -666633091 188566088#14 188566088#15 188566088#16 188566088#17 817138225#0 817138225#1 -959196950 -888677952#0 817507729 817507713#0 817507713#1 817507722#0 817507722#1 817507722#2 -754802540#1 -754802540#0 1168582834#9 1168582834#10 1168582834#11 1168582834#12 1168582834#13 1426619893#0 1426619893#1 1426619893#2 1426619893#3 1426619893#4 1426619893#5 188240132#0 188240132#1 188240132#2 188240132#3 188240132#4 188240132#5 188240132#6 188240132#7 188240132#8 188240132#9 188240132#10 188240132#11"/>
    </vehicle>
    <vehicle id="19" depart="19.00">
        <route edges="844159242#1 959202426 888677947#1 -817507730 -817507731 -817507717 -817507722#0 -817507713#1 -817507713#0 -817507729 888677952#0 959196950 817138225#2 794927749 794927748#0 794927748#1 -918886808#7 -918886808#6 -188575025#6 -888902517 799306137#3 799306137#4 -799306144#1 -888902516 -188242398#7 -188242398#6 -1220218804 1220218803#0 1220218803#1 837232082#2 837232081#0 837232081#1 150201803 177318059"/>
    </vehicle>
    <vehicle id="20" depart="20.00">
        <route edges="27814172#0 151570327#0 151570327#1 -178782089#23 -178782089#22 -178782089#21 -178782089#20 -178782089#19 -178782089#18 -178782089#17 -178782089#16 -178782089#15 -178782089#14 -178782089#13 -178782089#12 -178782089#11 -178782089#10 -178782089#9 -178782089#8 -178782089#7 -178782089#6 -1414307087#2 -1414307087#1 -1414307087#0 -315285503#1 890002799#0 -890002800 188242398#1 188242398#2 188242398#3 188242398#4 188242398#5 188242398#6 188242398#7 188242398#8 188242398#9 188242398#10 -177318037#9 -177318037#8 -177318037#7 -177318037#6 -177318037#5 -177318037#4 -470866468#2 -470866468#1 -470866468#0 -1426685141#1 -1426685141#0 -1366488763 -1366488764 -1366488762#1 -1366488762#0 -1366488760 -1366488759 -1366488758#5 -1366488758#4 -1366488758#3"/>
    </vehicle>
    <vehicle id="21" depart="21.00">
        <route edges="-470866468#0 1426685141#2 1426685141#3 672802137#0 672802137#1 672802137#2 672802137#3 672802137#4 672802137#5 -888681169#2 888681170 -888681167#6 -888681167#5 -888681167#4 959597003 959597044 959597043#0 959597043#1 1020248261 -1263634673#1 -1263634673#0 188242395#6 188242395#7 188242395#8 188242395#9 1426619896#0 1426619896#1 -895357827 959202082 959202083 959202084 959202037 959202218 959202219 -888677947#0 -1168582834#9 -1168582834#8 959198541#0 959198640#0 959198640#1 959198879 -759478525"/>
    </vehicle>
    <vehicle id="22" depart="22.00">
        <route edges="-1426619896#0 1426619896#0 1426619896#1 -895357827 959202082 959202083 959202084 959202037 959202218 959202219 -888677947#0 -1168582834#9 -1168582834#8 -1168582834#7 -1168582834#6 -1168582834#5 -1168582834#4 -1168582834#3 -1168582834#2 -1168582834#1 -1168582834#0 -1168582835 -31858865#16 -31858865#15 -31858865#14 -31858865#13 -31858865#12 -31858865#11 -31858865#10 -31858865#9 -31858865#8 -31858865#7 -31858865#6 -31858865#5 -31858865#4 -31858865#3 -31858865#2 -31858865#1 -666588337#2 -666588337#1 -666588337#0"/>
    </vehicle>
    <vehicle id="23" depart="23.00">
        <route edges="-177318029#5 -177318029#4 -177318029#3 -177318029#2 -177318029#1 -177318029#0 -1426619893#5 -1426619893#4 -1426619893#3 -1426619893#2 -1426619893#1 -1426619893#0 -1168582834#13 -1168582834#12 -1168582834#11 -1168582834#10 -1168582834#9 754802540#0 754802540#1 -817507722#2 -817507722#1 -817507722#0 -817507713#1 -817507713#0 -817507729 888677952#0 959196950 -817138225#1 -817138225#0 -188566088#17 -188566088#16 -188566088#15 -188566088#14 -188566088#13 -188566088#12 -188566088#11 -188566088#10 -188566088#9 -188566088#8 -188566088#7 -188566088#6 -315285502 -188575026 -315285501#6 -315285501#5 -315285501#4 -315285501#3 -315285501#2 -315285501#1 -315285501#0 178782089#0 178782089#1 178782089#2 178782089#3 178782089#4 178782089#5 178782089#6 178782089#7 178782089#8 178782089#9 178782089#10 178782089#11 178782089#12 178782089#13 178782089#14 178782089#15 758860818#0 -758860818#0"/>
    </vehicle>
    <vehicle id="24" depart="24.00">
        <route edges="178782089#24 -178782089#24 -178782089#23 -178782089#22 -178782089#21 -178782089#20 -178782089#19 -178782089#18 -178782089#17 -178782089#16 -178782089#15 -178782089#14 -178782089#13 -178782089#12 -178782089#11 -178782089#10 -178782089#9 -178782089#8 -178782089#7 -178782089#6 -178782089#5 -178782089#4 -178782089#3 -178782089#2 -178782089#1 -178782089#0 315285501#0 315285501#1 315285501#2 315285501#3 315285501#4 315285501#5 315285501#6 188575026 315285502 188566088#6 188566088#7 857726619 -888677944"/>
    </vehicle>
    <vehicle id="25" depart="25.00">
        <route edges="-848083103#1 848083103#1 -848083102#0 240962299#9 240962299#10 240962299#11 -178782089#18 -178782089#17 -178782089#16 -178782089#15 -178782089#14 -178782089#13 -178782089#12 -178782089#11 -178782089#10 -178782089#9 -178782089#8 -178782089#7 -178782089#6 -1414307087#2 -1414307087#1 -1414307087#0 -315285503#1 890002799#0 -890002800 188242398#1 188242398#2 188242398#3 365910893#0 365910893#1 618490368 -365911691#1"/>
    </vehicle>
    <vehicle id="26" depart="26.00">
        <route edges="-672802137#2 672802137#2 672802137#3 672802137#4 672802137#5 -888681169#2 888681170 -888681167#6 -888681167#5 -888681167#4 959597003 959597044 959597043#0 959597043#1 1020248261 -1263634673#1 -1263634673#0 188242395#6 188242395#7 188242395#8 188242395#9 1426619896#0 1426619896#1 -895357827 959202082 959202083 959202084 959202037 959202218 959202219 -888677947#0 -1168582834#9 -1168582834#8 -1168582834#7 -1168582834#6 -1168582834#5 -1168582834#4 -1168582834#3 -1168582834#2 -1168582834#1 -1168582834#0 -1168582835 -31858865#16 -31858865#15 -31858865#14 -31858865#13 -31858865#12 -188237501#1 -188240123#13 -188240123#12 -188240123#11 -188240123#10 959067912"/>
    </vehicle>
    <vehicle id="27" depart="27.00">
        <route edges="188237506#4 -188237506#4 -188237506#3 -188237506#2 -188237506#1 -188237506#0 31858865#10 31858865#11 -188237501#1 -188240123#13 -188240123#12 -188240123#11 188240113"/>
    </vehicle>
    <vehicle id="28" depart="28.00">
        <route edges="-188566088#11 188566088#11 188566088#12 188566088#13 188566088#14 188566088#15 188566088#16 188566088#17 817138225#0 817138225#1 817138225#2 794927749 794927748#0 794927748#1 -918886808#7 -918886808#6 -918886808#5 888681169#0 888681171#0 888681171#1 888681172#0 888681172#1 888681171#3 -857786078#1 -857786078#0 -857785941#0 -672802137#0 -1426685141#3 -1426685141#2 -1426685141#1 -1426685141#0 -1366488763 -1366488764 -1366488762#1 -334681603#9 666625336#0 666625335#0"/>
    </vehicle>
    <vehicle id="29" depart="29.00">
        <route edges="-188242398#5 188242398#5 188242398#6 188242398#7 188242398#8 188242398#9 188242398#10 -177318037#9 -177318037#8 -177318037#7 -177318037#6 1414301922#0 1414301922#1 1414301922#2 1414301922#3 -177318037#1 -857785941#1 857786078#0 857786078#1 -888681171#3"/>
    </vehicle>
    <vehicle id="30" depart="30.00">
        <route edges="959920842 959920737 -959920737 -959920842 -959920841 918886808#3 918886808#4 918886808#5 918886808#6 918886808#7 -794927748#1 -794927748#0 -794927749 -817138225#2 -817138225#1 -817138225#0 -188566088#17 -188566088#16 -188566088#15 -188566088#14 188566088#14"/>
    </vehicle>
    <vehicle id="31" depart="31.00">
        <route edges="1219517994#1 -151363594#0 27814172#2 1219515930 -1219515929 150789955#0 150789955#1 240962299#11 -178782089#18 -178782089#17 -178782089#16 -178782089#15 -178782089#14 -178782089#13 -178782089#12 -178782089#11 -178782089#10 -178782089#9 -178782089#8 -178782089#7 -178782089#6 -1414307087#2 -1414307087#1 -1414307087#0 -315285503#1 890002799#0 -890002800 188242398#1 188242398#2 188242398#3 188242398#4 188242398#5 -1220218804 1220218803#0 1220218803#1 837232082#2 365911684#0"/>
    </vehicle>
    <vehicle id="32" depart="32.00">
        <route edges="817507729 -817507729 888677952#0 959196950 817138225#2 794927749 794927748#0 794927748#1 -918886808#7 -918886808#6 -918886808#5 888681169#0 888681171#0 888681171#1 888681172#0 888681172#1 888681171#3 -857786078#1 -857786078#0 -857785941#0 -672802137#0 -1426685141#3 -1426685141#2 -1426685141#1 -1426685141#0 -1366488763 -1366488764 -1366488762#1 -1366488762#0 -1366488760 -1366488759 -1366488758#5 -1366488758#4 -1366488758#3 758911810#0 758911810#1 758911810#2"/>
    </vehicle>
    <vehicle id="33" depart="33.00">
        <route edges="-522449322#0 440707884#1 440707884#2 440707884#3 440707884#4 440707884#5 440707884#6 440707884#7 440707884#8 672802137#2 672802137#3 672802137#4 672802137#5 -888681169#2 888681170 -888681167#6 -888681167#5 -888681167#4 959597003 959597044 959597043#0 959597043#1 1020248261 -1263634673#1 -1263634673#0 188242395#6 188242395#7 188242395#8 188242395#9 1426619896#0 1426619896#1 -895357827 959202082 959202083 959202084 959202037 959202218 959202219 -959202426 -844159242#1 -844159242#0 1168582834#13 1426619893#0 666614653#0 844157574#0 1227307817#0 1227307817#1 -1227307817#1"/>
    </vehicle>
    <vehicle id="34" depart="34.00">
        <route edges="-797967632#1 797967632#1 901549237 901549236 -1414220391#3 -1414220391#2 -1414220391#1 -1414220391#0 -1168442256#5 -1168442256#4 -1168442256#3 -1168442256#2 -1168442256#1 -1168442256#0 -177318029#9 -177318029#8 748093427#0 -748093427#0"/>
    </vehicle>
    <vehicle id="35" depart="35.00">
        <route edges="-334681603#4 334681603#4 334681603#5 334681603#6 334681603#7 334681603#8 334681603#9 1366488762#1 1366488764 1366488763 1426685141#0 1426685141#1 470866468#0 470866468#1 470866468#2 177318037#4 177318037#5 177318037#6 177318037#7 177318037#8 177318037#9 -188242398#10 -188242398#9 -188242398#8 888902516 799306144#1 -799306137#4 -799306137#3 -799306137#2 -799306137#1 -799306137#0 -188575025#1 -188575025#0 315285502 188566088#6 188566088#7 857726619 -888677944 959151414#1"/>
    </vehicle>
    <vehicle id="36" depart="36.00">
        <route edges="848084236#1 666588674#1 666588674#2 666588674#3 -178782089#3 -178782089#2 -178782089#1 -178782089#0 315285501#0 315285501#1 315285501#2 315285501#3 315285501#4 315285501#5 315285501#6 188575026 315285502 188566088#6 188566088#7 857726619 -888677944 -959151414#0 -831858059#1"/>
    </vehicle>
    <vehicle id="37" depart="37.00">
        <route edges="188240109#0 -188240109#0 -188240132#9 -188240132#8 -188240132#7 849823458 -889113173#2 -889113173#1 -889113173#0"/>
    </vehicle>
    <vehicle id="38" depart="38.00">
        <route edges="888685997#0 -888685997#0 -1414277825#1 -1414277825#0 860142347#0 860142347#1 860142347#2 860142347#3 860142347#4 1426619896#7 1426619896#8 -1168582834#13 -1168582834#12 -1168582834#11 -1168582834#10 -1168582834#9 754802540#0 754802540#1 -817507722#2 -817507722#1 -817507722#0 -817507713#1 -817507713#0 -817507729 888677952#0 959196950 -817138225#1 -817138225#0 -188566088#17 -188566088#16 -188566088#15 -188566088#14 -188566088#13 -188566088#12 -188566088#11 -188566088#10 -188566088#9 -188566088#8 -188566088#7 -188566088#6 -315285502 -188575026 -315285501#6 -315285501#5 -315285501#4 -315285501#3 -315285501#2 -315285501#1 -315285501#0 178782089#0 178782089#1 178782089#2 178782089#3 178782089#4 178782089#5 178782089#6 178782089#7 178782089#8 178782089#9 178782089#10 178782089#11 178782089#12 178782089#13 178782089#14 178782089#15 178782089#16 178782089#17 178782089#18 -240962299#11 -150789955#1 -150789955#0 1219515929 -1219515930 27814172#3 -960099475#1"/>
    </vehicle>
    <vehicle id="39" depart="39.00">
        <route edges="-666633091 188566088#14 188566088#15 188566088#16 188566088#17 817138225#0 817138225#1 817138225#2 794927749 794927748#0 794927748#1 -918886808#7 -918886808#6 -918886808#5 888681169#0 888681171#0 888681171#1 888681172#0 888681172#1 888681171#3 -857786078#1 -857786078#0 -857785941#0 -672802137#0 -1426685141#3 -1426685141#2 -1426685141#1 -1426685141#0 -1366488763 -1366488764 -1366488762#1 -334681603#9 -334681603#8 -334681603#7 857784453 666625335#1 -666625335#1"/>
    </vehicle>
    <vehicle id="40" depart="40.00">
        <route edges="1230082066 889113175#1 -844155818 843406141#6 188237501#0 188237501#1 -31858865#11 -31858865#10 -31858865#9 -31858865#8 -315285497#9 -315285497#8 -315285497#7 -315285497#6 -315285497#5 -315285497#4 -315285497#3 -315285497#2 -315285497#1 -315285497#0 -397239655 -397239657 -178789633#6 -178789633#5 -178789633#4 -178789633#3 -178789633#2 -178789633#1 -178789633#0 178782089#0 178782089#1 178782089#2 178782089#3 178782089#4 178782089#5 178782089#6 178782089#7 178782089#8 178782089#9 178782089#10 178782089#11 178782089#12 178782089#13 178782089#14 178782089#15 178782089#16 178782089#17 745535001#0 745535001#1 -745535001#1"/>
    </vehicle>
    <vehicle id="41" depart="41.00">
        <route edges="1414301922#0 1414301922#1 1414301922#2 1414301922#3 -177318037#1 -177318037#0 672802137#0 672802137#1 672802137#2 672802137#3 672802137#4 672802137#5 -888681169#2 888681170 -888681167#6 -888681167#5 -888681167#4 959597003 959597044 959597043#0 959597043#1 1020248261 -1263634673#1 -1263634673#0 188242395#6 188242395#7 188242395#8 188242395#9 1426619896#0 1426619896#1 1426619896#2 1426619896#3 1426619896#4 1426619896#5 1426619896#6 -860142347#4 -860142347#3 -860142347#2 -860142347#1 -860142347#0 1414277825#0 1414277825#1 797967632#0 797967632#1 901549237 901549236 -1414220391#3 -1414220391#2 -1414220391#1 -1414220391#0 -799105915#1 888685998#0"/>
    </vehicle>
    <vehicle id="42" depart="42.00">
        <route edges="-860142347#4 888703298#0 888703298#1 959597242 177318029#1 177318029#2 177318029#3 177318029#4 177318029#5 177318029#6 -522467751"/>
    </vehicle>
    <vehicle id="43" depart="43.00">
        <route edges="960938153 -666610680#2 -666610680#1 888685995#0 888685995#1 188242395#1 188242395#2 188242395#3 188242395#4 188242395#5 1263634673#0 1263634673#1 -1020248261 -959597043#1 -959597043#0 -959597044 -959597003 888681167#4 888681167#5 888681167#6 -888681170 888681169#2 -672802137#5 -672802137#4 -672802137#3 -672802137#2 -440707884#8 -440707884#7 -440707884#6 -440707884#5 -440707884#4 -440707884#3 946193463#0 1306278159"/>
    </vehicle>
    <vehicle id="44" depart="44.00">
        <route edges="-151363594#1 -151363594#0 27814172#2 1219515930 -1219515929 150789955#0 150789955#1 240962299#11 -178782089#18 -178782089#17 -178782089#16 -178782089#15 -178782089#14 -178782089#13 -178782089#12 -178782089#11 -178782089#10 -178782089#9 -178782089#8 -178782089#7 -178782089#6 -1414307087#2 -1414307087#1 -1414307087#0 -315285503#1 890002799#0 -890002800 188242398#1 188242398#2 188242398#3 188242398#4 188242398#5 188242398#6 188242398#7 188242398#8 188242398#9 188242398#10 -177318037#9 -177318037#8 -177318037#7 -177318037#6 -177318037#5 -177318037#4 -470866468#2 -470866468#1 -470866468#0 -1426685141#1 -1426685141#0 -1366488763 -1366488764 -1366488762#1 -1366488762#0 -1366488760 -1366488759"/>
    </vehicle>
    <vehicle id="45" depart="45.00">
        <route edges="-177318059 -150201803 -837232081#1 -837232081#0 365911684#0 -1220218803#0 1220218804 188242398#6 188242398#7 888902516 799306144#1 -799306137#4 -799306137#3 888902517 188575025#6 918886808#6 918886808#7 1426619897#0 1426619897#1 1426619897#2 1426619897#3 958069531 188242395#7 188242395#8"/>
    </vehicle>
    <vehicle id="46" depart="46.00">
        <route edges="745534300#1 1366488758#4 1366488758#5 1366488759 1366488760 1366488762#0 1366488762#1 1366488764 1366488763 1426685141#0 1426685141#1 470866468#0 470866468#1 470866468#2 177318037#4 177318037#5 177318037#6 177318037#7 177318037#8 177318037#9 -188242398#10 -188242398#9 -188242398#8 888902516 799306144#1 -799306137#4 -799306137#3 -799306137#2 -799306137#1 -799306137#0 -188575025#1 -188575025#0 315285502 -188566088#5 -188566088#4 -188566088#3 959150189 959150332 959150331 959150627 959150626 959151061 959151128 959151127 -959151127 -959151128 -959151061"/>
    </vehicle>
    <vehicle id="47" depart="47.00">
        <route edges="-1414301922#1 1414301922#1 1414301922#2 1414301922#3 -177318037#1 -177318037#0 672802137#0 672802137#1 672802137#2 672802137#3 672802137#4 672802137#5 -888681169#2 888681170 -888681167#6 -888681167#5 -888681167#4 959597003 959597044 959597043#0 959597043#1 1020248261 -1263634673#1 -1263634673#0 -188242395#5 -188242395#4 -188242395#3 -188242395#2 -188242395#1 -888685995#1 -888685995#0"/>
    </vehicle>
    <vehicle id="48" depart="48.00">
        <route edges="960937078 960937079 960937075 -666608620#1 -666608620#0 -177318056#1 -177318056#0 -1414220391#3 1414220391#3"/>
    </vehicle>
    <vehicle id="49" depart="49.00">
        <route edges="959202082 959202083 959202084 959202037 959202218 959202219 -888677947#0 -1168582834#9 -1168582834#8 -1168582834#7 -1168582834#6 -1168582834#5 -1168582834#4 -1168582834#3 -1168582834#2 -1168582834#1 -1168582834#0 -1168582835 -31858865#16 -31858865#15 -31858865#14 842131583#0 842131583#1 842131583#2 -959152023 -857726621#2 857726621#2"/>
    </vehicle>
    <vehicle id="50" depart="50.00">
        <route edges="-1069495736 -1426619896#2 -1426619896#1 -1426619896#0 -188242395#9 -188242395#8 -188242395#7 -188242395#6 1263634673#0 1263634673#1 -1020248261 -959597043#1 -959597043#0 -959597044 -959597003 888681167#4 888681167#5 888681167#6 -888681170 888681169#2 -672802137#5 -672802137#4 -672802137#3 -672802137#2 -672802137#1 -672802137#0 -1426685141#3 -1426685141#2 -1426685141#1 -1426685141#0 -1366488763 -1366488764 -1366488762#1 -334681603#9 -334681603#8 -334681603#7 -334681603#6 -334681603#5 -334681603#4 666604081#0 666604081#1 666604081#2"/>
    </vehicle>
    <vehicle id="51" depart="51.00">
        <route edges="188242398#9 -188242398#9 -188242398#8 -188242398#7 -188242398#6 -188242398#5 -188242398#4 -188242398#3 -188242398#2 -188242398#1 890002800 -890002799#0 315285503#1 1414307087#0 1414307087#1 1414307087#2"/>
    </vehicle>
    <vehicle id="52" depart="52.00">
        <route edges="-672802137#11 -188237538#3 -188237538#2 -188237538#1 -188237538#0 -1263634673#3 -1263634673#2 -1263634673#1 -1263634673#0 188242395#6 188242395#7 188242395#8 188242395#9 1426619896#0 1426619896#1 -895357827 959202082 959202083 959202084 959202037 959202218 959202219 888677947#1 -817507730 -817507731 -817507717 -817507722#0 -817507713#1 -817507713#0 -817507729 888677952#0 959196950 -817138225#1 -817138225#0 -188566088#17 -188566088#16 188566088#16"/>
    </vehicle>
    <vehicle id="53" depart="53.00">
        <route edges="-177318060#3 177318060#3 1252012275 -177318029#2 -177318029#1 -177318029#0 -1426619893#5 -1426619893#4 -1426619893#3 -1426619893#2 -1426619893#1 666614653#0 666614653#1 666614653#2 959199685 -959198640#1"/>
    </vehicle>
    <vehicle id="54" depart="54.00">
        <route edges="848084236#0 -848084236#0 178782089#9 178782089#10 178782089#11 178782089#12 178782089#13 178782089#14 178782089#15 178782089#16 178782089#17 178782089#18 178782089#19 -745535001#6 -745535001#5 -745535001#4 -745535001#3 -745535001#2"/>
    </vehicle>
    <vehicle id="55" depart="55.00">
        <route edges="-959597163 -959597043#0 -959597044 -959597003 888681167#4 888681167#5 888681167#6 -888681170 -888681169#1 -888681169#0 918886808#5 -188575025#6 -188575025#5 -188575025#4 -188575025#3 -188575025#2 -188575025#1 -188575025#0 -188575026 -315285501#6 -315285501#5 -315285501#4 -315285501#3 -315285501#2 -315285501#1 -315285501#0 178782089#0 178782089#1 178782089#2 178782089#3 -666588674#3 -666588674#2 -666588674#1 -666588674#0 240962299#1 240962299#2 240962299#3 240962299#4 240962299#5 240962299#6 240962299#7 240962299#8 848083102#0 -848083103#1 -848083104 -27814172#6 -27814172#5 -27892114#1 -27892114#0"/>
    </vehicle>
    <vehicle id="56" depart="56.00">
        <route edges="888681172#1 -888681171#2 -888681171#1 -888681171#0 888681169#1 888681170 -888681167#6 -888681167#5 -888681167#4 959597003 959597044 959597043#0 959597043#1 1020248261 -1263634673#1 -1263634673#0 188242395#6 188242395#7 188242395#8 188242395#9 1426619896#0 1426619896#1 1426619896#2 1426619896#3 1426619896#4 1426619896#5 1426619896#6 -860142347#4 -860142347#3 -860142347#2 -860142347#1 -860142347#0 1414277825#0 1414277825#1 797967632#0 860142348"/>
    </vehicle>
    <vehicle id="57" depart="57.00">
        <route edges="-758860818#2 -758860818#1 -758860818#0 -178782089#15 -178782089#14 -178782089#13 -178782089#12 -178782089#11 -178782089#10 -178782089#9 -178782089#8 -178782089#7 -178782089#6 -178782089#5 -178782089#4 -178782089#3 -178782089#2 -178782089#1 -178782089#0 315285501#0 315285501#1 315285501#2 315285501#3 315285501#4 315285501#5 315285501#6 188575026 315285502 188566088#6 188566088#7 188566088#8 188566088#9 188566088#10 188566088#11"/>
    </vehicle>
    <vehicle id="58" depart="58.00">
        <route edges="151570455#0 151570455#1 151570455#2 151570455#3 -178782089#22 -178782089#21 -178782089#20 -178782089#19 -178782089#18 -178782089#17 -178782089#16 -178782089#15 -178782089#14 -178782089#13 -178782089#12 -178782089#11 -178782089#10 -178782089#9 -178782089#8 -178782089#7 -178782089#6 -1414307087#2 -1414307087#1 -1414307087#0 -315285503#1 890002799#0 -890002800 188242398#1 188242398#2 188242398#3 188242398#4 188242398#5 188242398#6 188242398#7 188242398#8 188242398#9 -188242398#9"/>
    </vehicle>
    <vehicle id="59" depart="59.00">