<?xml version="1.0" encoding="UTF-8"?>

<!-- generated on 2026-03-31 19:11:21.335916 by Eclipse SUMO randomTrips.py v1_26_0+0000-fa7df22d7f1
<configuration>
    <net-file value="map.net.xml"/>
    <end value="1000.0"/>
</configuration>
-->

<routes xmlns:xsi="http://www.w3.org/2001/XMLSchema-instance" xsi:noNamespaceSchemaLocation="http://sumo.dlr.de/xsd/routes_file.xsd">
    <trip id="0" depart="0.00" from="178782089#8" to="-1219515930"/>
    <trip id="1" depart="1.00" from="-744797402#0" to="-586611478#3"/>
    <trip id="2" depart="2.00" from="365911688" to="31858865#9"/>
    <trip id="3" depart="3.00" from="887463504" to="-177318029#3"/>
    <trip id="4" depart="4.00" from="-888681172#0" to="-1220218803#2"/>
    <trip id="5" depart="5.00" from="-365911687#3" to="1272924922#0"/>
    <trip id="6" depart="6.00" from="-1219510488" to="-334681603#3"/>
    <trip id="7" depart="7.00" from="188237506#8" to="1426619894#3"/>
    <trip id="8" depart="8.00" from="-365911690#2" to="178782089#3"/>
    <trip id="9" depart="9.00" from="758860830" to="-1031914318"/>
    <trip id="10" depart="10.00" from="758322863#0" to="522449322#1"/>
    <trip id="11" depart="11.00" from="-831858059#0" to="-188316237#1"/>
    <trip id="12" depart="12.00" from="959151923" to="-844212628#0"/>
    <trip id="13" depart="13.00" from="-151570327#1" to="-177318060#0"/>
    <trip id="14" depart="14.00" from="837232082#0" to="188237538#1"/>
    <trip id="15" depart="15.00" from="758322864#2" to="666625335#2"/>
    <trip id="16" depart="16.00" from="1049857380" to="959597345"/>
    <trip id="17" depart="17.00" from="-849820239#0" to="1426619897#0"/>
    <trip id="18" depart="18.00" from="799306142#0" to="188240132#11"/>
    <trip id="19" depart="19.00" from="844159242#1" to="177318059"/>
    <trip id="20" depart="20.00" from="27814172#0" to="-1366488758#3"/>
    <trip id="21" depart="21.00" from="-470866468#0" to="-759478525"/>
    <trip id="22" depart="22.00" from="-1426619896#0" to="-666588337#0"/>
    <trip id="23" depart="23.00" from="-177318029#5" to="-758860818#0"/>
    <trip id="24" depart="24.00" from="178782089#24" to="-888677944"/>
    <trip id="25" depart="25.00" from="-848083103#1" to="-365911691#1"/>
    <trip id="26" depart="26.00" from="-672802137#2" to="959067912"/>
    <trip id="27" depart="27.00" from="188237506#4" to="188240113"/>
    <trip id="28" depart="28.00" from="-188566088#11" to="666625335#0"/>
    <trip id="29" depart="29.00" from="-188242398#5" to="-888681171#3"/>
    <trip id="30" depart="30.00" from="959920842" to="188566088#14"/>
    <trip id="31" depart="31.00" from="1219517994#1" to="365911684#0"/>
    <trip id="32" depart="32.00" from="817507729" to="758911810#2"/>
    <trip id="33" depart="33.00" from="-522449322#0" to="-1227307817#1"/>
    <trip id="34" depart="34.00" from="-797967632#1" to="-748093427#0"/>
    <trip id="35" depart="35.00" from="-334681603#4" to="959151414#1"/>
    <trip id="36" depart="36.00" from="848084236#1" to="-831858059#1"/>
    <trip id="37" depart="37.00" from="188240109#0" to="-889113173#0"/>
    <trip id="38" depart="38.00" from="888685997#0" to="-960099475#1"/>
    <trip id="39" depart="39.00" from="-666633091" to="-666625335#1"/>
    <trip id="40" depart="40.00" from="1230082066" to="-745535001#1"/>
    <trip id="41" depart="41.00" from="1414301922#0" to="888685998#0"/>
    <trip id="42" depart="42.00" from="-860142347#4" to="-522467751"/>
    <trip id="43" depart="43.00" from="960938153" to="1306278159"/>
    <trip id="44" depart="44.00" from="-151363594#1" to="-1366488759"/>
    <trip id="45" depart="45.00" from="-177318059" to="188242395#8"/>
    <trip id="46" depart="46.00" from="745534300#1" to="-959151061"/>
    <trip id="47" depart="47.00" from="-1414301922#1" to="-888685995#0"/>
    <trip id="48" depart="48.00" from="960937078" to="1414220391#3"/>
    <trip id="49" depart="49.00" from="959202082" to="857726621#2"/>
    <trip id="50" depart="50.00" from="-1069495736" to="666604081#2"/>
    <trip id="51" depart="51.00" from="188242398#9" to="1414307087#2"/>
    <trip id="52" depart="52.00" from="-672802137#11" to="188566088#16"/>
    <trip id="53" depart="53.00" from="-177318060#3" to="-959198640#1"/>
    <trip id="54" depart="54.00" from="848084236#0" to="-745535001#2"/>
    <trip id="55" depart="55.00" from="-959597163" to="-27892114#0"/>
    <trip id="56" depart="56.00" from="888681172#1" to="860142348"/>
    <trip id="57" depart="57.00" from="-758860818#2" to="188566088#11"/>
    <trip id="58" depart="58.00" from="151570455#0" to="-188242398#9"/>
    <trip id="59" depart="59.00" from="666588337#0" to="1414376391"/>
    <trip id="60" depart="60.00" from="666625336#0" to="1414277825#1"/>
    <trip id="61" depart="61.00" from="-1018201338#0" to="-843406141#5"/>
    <trip id="62" depart="62.00" from="-1168582834#2" to="918886808#4"/>
    <trip id="63" depart="63.00" from="849820933" to="844196145"/>
    <trip id="64" depart="64.00" from="-758911810#2" to="-1414303322"/>
    <trip id="65" depart="65.00" from="849646429#0" to="959193449"/>
    <trip id="66" depart="66.00" from="-1426619897#3" to="1168582834#12"/>
    <trip id="67" depart="67.00" from="-1414307087#2" to="754803776#0"/>
    <trip id="68" depart="68.00" from="666589140#0" to="-188240114#1"/>
    <trip id="69" depart="69.00" from="-959192765" to="1426619896#5"/>
    <trip id="70" depart="70.00" from="-672802137#0" to="888471602"/>
    <trip id="71" depart="71.00" from="-888685993" to="-440707884#2"/>
    <trip id="72" depart="72.00" from="1168442256#3" to="666625335#2"/>
    <trip id="73" depart="73.00" from="-315285503#1" to="-817507722#1"/>
    <trip id="74" depart="74.00" from="960633898" to="240962299#1"/>
    <trip id="75" depart="75.00" from="-888902518#1" to="1309445788"/>
    <trip id="76" depart="76.00" from="-178782089#26" to="-586611478#7"/>
    <trip id="77" depart="77.00" from="-817507729" to="178782089#25"/>
    <trip id="78" depart="78.00" from="-522449322#2" to="-586611477#0"/>
    <trip id="79" depart="79.00" from="-1414376389" to="188242398#5"/>
    <trip id="80" depart="80.00" from="-470866468#2" to="888703297"/>
    <trip id="81" depart="81.00" from="844157574#2" to="-1426619896#8"/>
    <trip id="82" depart="82.00" from="-598061867" to="31858865#0"/>
    <trip id="83" depart="83.00" from="-365910893#1" to="-188240123#13"/>
    <trip id="84" depart="84.00" from="889113185" to="177318037#0"/>
    <trip id="85" depart="85.00" from="-959151586" to="798009704"/>
    <trip id="86" depart="86.00" from="758322866" to="-31858865#10"/>
    <trip id="87" depart="87.00" from="-154145259#1" to="-959197496"/>
    <trip id="88" depart="88.00" from="-888685994" to="-961612529"/>
    <trip id="89" depart="89.00" from="334681603#5" to="31858865#2"/>
    <trip id="90" depart="90.00" from="959919009" to="-178782089#0"/>
    <trip id="91" depart="91.00" from="-888471604" to="-845231853#0"/>
    <trip id="92" depart="92.00" from="844159242#1" to="-666625336#0"/>
    <trip id="93" depart="93.00" from="-27814172#6" to="-959598031"/>
    <trip id="94" depart="94.00" from="-888681172#0" to="-758860818#1"/>
    <trip id="95" depart="95.00" from="-666589140#1" to="895357827"/>
    <trip id="96" depart="96.00" from="-889113183#0" to="857726621#3"/>
    <trip id="97" depart="97.00" from="1208751182" to="-1377424682#0"/>
    <trip id="98" depart="98.00" from="961612529" to="845230680#0"/>
    <trip id="99" depart="99.00" from="959201280" to="901549237"/>
    <trip id="100" depart="100.00" from="837232082#2" to="-188575025#1"/>
    <trip id="101" depart="101.00" from="-959198372" to="-440707884#6"/>
    <trip id="102" depart="102.00" from="-888471601#1" to="-1414307087#1"/>
    <trip id="103" depart="103.00" from="-849820239#1" to="959919958"/>
    <trip id="104" depart="104.00" from="-672802137#0" to="797967632#1"/>
    <trip id="105" depart="105.00" from="-901549236" to="-959151128"/>
    <trip id="106" depart="106.00" from="959152023" to="960937079"/>
    <trip id="107" depart="107.00" from="1219517712" to="666589140#1"/>
    <trip id="108" depart="108.00" from="-188240132#9" to="-799306137#4"/>
    <trip id="109" depart="109.00" from="959201052" to="177318060#3"/>
    <trip id="110" depart="110.00" from="1168582834#1" to="745535001#3"/>
    <trip id="111" depart="111.00" from="-1377419563" to="178782089#17"/>
    <trip id="112" depart="112.00" from="-959597491" to="849822236"/>
    <trip id="113" depart="113.00" from="-188242395#3" to="959201280"/>
    <trip id="114" depart="114.00" from="-1426619896#0" to="-315285501#3"/>
    <trip id="115" depart="115.00" from="1426619895#0" to="31858865#6"/>
    <trip id="116" depart="116.00" from="-586611478#2" to="-188237506#6"/>
    <trip id="117" depart="117.00" from="860142347#2" to="-666625335#0"/>
    <trip id="118" depart="118.00" from="1426619894#5" to="188240132#3"/>
    <trip id="119" depart="119.00" from="-888681170" to="178782089#16"/>
    <trip id="120" depart="120.00" from="-960935967" to="958069531"/>
    <trip id="121" depart="121.00" from="-31858865#14" to="666588674#0"/>
    <trip id="122" depart="122.00" from="188240135#1" to="-799306142#1"/>
    <trip id="123" depart="123.00" from="-798009704" to="746831441#2"/>
    <trip id="124" depart="124.00" from="-1414376394" to="-960099475#0"/>
    <trip id="125" depart="125.00" from="961611412" to="960938152"/>
    <trip id="126" depart="126.00" from="-1426619893#0" to="-440707884#5"/>
    <trip id="127" depart="127.00" from="-672802137#0" to="946193463#0"/>
    <trip id="128" depart="128.00" from="849823458" to="888677947#1"/>
    <trip id="129" depart="129.00" from="-848083102#0" to="-188566088#1"/>
    <trip id="130" depart="130.00" from="817138225#1" to="586611478#2"/>
    <trip id="131" depart="131.00" from="151570456#2" to="959921891"/>
    <trip id="132" depart="132.00" from="188237543#2" to="-1049857383"/>
    <trip id="133" depart="133.00" from="758915036#1" to="-799306142#0"/>
    <trip id="134" depart="134.00" from="188240123#5" to="959150189"/>
    <trip id="135" depart="135.00" from="-188237506#7" to="-188237501#1"/>
    <trip id="136" depart="136.00" from="-177318037#7" to="1426619897#3"/>
    <trip id="137" depart="137.00" from="-739457630#0" to="188237538#3"/>
    <trip id="138" depart="138.00" from="315285503#0" to="-365911681"/>
    <trip id="139" depart="139.00" from="178782089#21" to="-745535001#3"/>
    <trip id="140" depart="140.00" from="-959199022" to="888703297"/>
    <trip id="141" depart="141.00" from="837010244" to="-177318037#4"/>
    <trip id="142" depart="142.00" from="-888685994" to="-758322864#1"/>
    <trip id="143" depart="143.00" from="-1020243408" to="758860833"/>
    <trip id="144" depart="144.00" from="178782089#4" to="-745534300#1"/>
    <trip id="145" depart="145.00" from="440707884#0" to="1426619897#0"/>
    <trip id="146" depart="146.00" from="-888685998#1" to="-1168442256#2"/>
    <trip id="147" depart="147.00" from="-1426619893#4" to="888677949#0"/>
    <trip id="148" depart="148.00" from="888677952#0" to="1426619894#4"/>
    <trip id="149" depart="149.00" from="817146417#0" to="178782089#14"/>
    <trip id="150" depart="150.00" from="-188240123#7" to="-188240112"/>
    <trip id="151" depart="151.00" from="-758911812" to="888685999#0"/>
    <trip id="152" depart="152.00" from="746831441#0" to="857726621#1"/>
    <trip id="153" depart="153.00" from="888677947#0" to="-397239655"/>
    <trip id="154" depart="154.00" from="-666589140#0" to="-178782089#17"/>
    <trip id="155" depart="155.00" from="666633091" to="888677952#0"/>
    <trip id="156" depart="156.00" from="-888677945#0" to="188240132#5"/>
    <trip id="157" depart="157.00" from="-188240132#8" to="918886808#5"/>
    <trip id="158" depart="158.00" from="844196143#1" to="959598031"/>
    <trip id="159" depart="159.00" from="758860831#1" to="888677948#3"/>
    <trip id="160" depart="160.00" from="-1205710326" to="672802137#4"/>
    <trip id="161" depart="161.00" from="-817203463" to="918886808#7"/>
    <trip id="162" depart="162.00" from="754802540#1" to="857729975"/>
    <trip id="163" depart="163.00" from="758860831#1" to="-746831441#1"/>
    <trip id="164" depart="164.00" from="739457630#2" to="-178782089#4"/>
    <trip id="165" depart="165.00" from="845231853#1" to="857725596#1"/>
    <trip id="166" depart="166.00" from="-397239655" to="843406137"/>
    <trip id="167" depart="167.00" from="-921472781#0" to="-817146417#1"/>
    <trip id="168" depart="168.00" from="745535001#6" to="-618501266#0"/>
    <trip id="169" depart="169.00" from="-1168586359" to="-31858865#16"/>
    <trip id="170" depart="170.00" from="-817138225#2" to="857784453"/>
    <trip id="171" depart="171.00" from="959198640#1" to="-758860818#2"/>
    <trip id="172" depart="172.00" from="178789633#2" to="-889113183#2"/>
    <trip id="173" depart="173.00" from="959598031" to="1414307087#0"/>
    <trip id="174" depart="174.00" from="895356025" to="-188237501#1"/>
    <trip id="175" depart="175.00" from="959202037" to="-27814172#6"/>
    <trip id="176" depart="176.00" from="959196950" to="-745535001#6"/>
    <trip id="177" depart="177.00" from="-177318056#0" to="-959198640#1"/>
    <trip id="178" depart="178.00" from="334681603#4" to="-817507731"/>
    <trip id="179" depart="179.00" from="150789955#1" to="1306278163"/>
    <trip id="180" depart="180.00" from="-849823195#1" to="177318056#2"/>
    <trip id="181" depart="181.00" from="-666604758#1" to="618490368"/>
    <trip id="182" depart="182.00" from="1168442256#1" to="666589993"/>
    <trip id="183" depart="183.00" from="440707884#2" to="31858865#11"/>
    <trip id="184" depart="184.00" from="-844212629#1" to="-1426619896#6"/>
    <trip id="185" depart="185.00" from="188240123#7" to="-844161243"/>
    <trip id="186" depart="186.00" from="-794927748#1" to="849646429#1"/>
    <trip id="187" depart="187.00" from="31858865#11" to="-799306143#0"/>
    <trip id="188" depart="188.00" from="-758912708#0" to="-901549236"/>
    <trip id="189" depart="189.00" from="-888471604" to="-799306137#1"/>
    <trip id="190" depart="190.00" from="-178789633#4" to="-959150331"/>
    <trip id="191" depart="191.00" from="895357827" to="334681603#1"/>
    <trip id="192" depart="192.00" from="888677949#0" to="188240123#7"/>
    <trip id="193" depart="193.00" from="-758860831#1" to="1426619896#1"/>
    <trip id="194" depart="194.00" from="-1018201337" to="-758915036#0"/>
    <trip id="195" depart="195.00" from="-888696105" to="178782089#1"/>
    <trip id="196" depart="196.00" from="188237543#3" to="-960938153"/>
    <trip id="197" depart="197.00" from="-889113175#0" to="-440707884#6"/>
    <trip id="198" depart="198.00" from="-959151704" to="888702221#0"/>
    <trip id="199" depart="199.00" from="746831441#0" to="-240962299#0"/>
    <trip id="200" depart="200.00" from="-1426619897#1" to="1309445782#2"/>
    <trip id="201" depart="201.00" from="178782089#19" to="-844196146"/>
    <trip id="202" depart="202.00" from="759478524#0" to="746831441#0"/>
    <trip id="203" depart="203.00" from="188242395#1" to="-586611478#6"/>
    <trip id="204" depart="204.00" from="-315285501#5" to="-1219510488"/>
    <trip id="205" depart="205.00" from="-622587767#0" to="1020249625"/>
    <trip id="206" depart="206.00" from="842131583#0" to="-1426619897#3"/>
    <trip id="207" depart="207.00" from="-888681167#0" to="188242398#2"/>
    <trip id="208" depart="208.00" from="-315285497#6" to="470866468#0"/>
    <trip id="209" depart="209.00" from="-959202219" to="-666614653#0"/>
    <trip id="210" depart="210.00" from="188240109#1" to="-1020248261"/>
    <trip id="211" depart="211.00" from="586611477#2" to="758860832#0"/>
    <trip id="212" depart="212.00" from="-177318037#7" to="-959152023"/>
    <trip id="213" depart="213.00" from="-188566088#5" to="959198640#0"/>
    <trip id="214" depart="214.00" from="-960099816" to="-1377396916"/>
    <trip id="215" depart="215.00" from="-666589140#0" to="849647068"/>
    <trip id="216" depart="216.00" from="-918886808#0" to="817507709#0"/>
    <trip id="217" depart="217.00" from="188240132#2" to="960099475#1"/>
    <trip id="218" depart="218.00" from="1426619895#1" to="959194580"/>
    <trip id="219" depart="219.00" from="860142347#4" to="188240123#13"/>
    <trip id="220" depart="220.00" from="31858865#10" to="1266770304#1"/>
    <trip id="221" depart="221.00" from="799306143#1" to="1426619896#1"/>
    <trip id="222" depart="222.00" from="888677944" to="744797402#1"/>
    <trip id="223" depart="223.00" from="-959152212" to="-744797402#1"/>
    <trip id="224" depart="224.00" from="-666588674#0" to="188566088#1"/>
    <trip id="225" depart="225.00" from="666589140#0" to="1366488758#5"/>
    <trip id="226" depart="226.00" from="-1426619894#3" to="-758912708#0"/>
    <trip id="227" depart="227.00" from="-738695724" to="-842131583#4"/>
    <trip id="228" depart="228.00" from="1168442256#5" to="-188240132#2"/>
    <trip id="229" depart="229.00" from="-522467751" to="440707884#5"/>
    <trip id="230" depart="230.00" from="27814172#4" to="-1426619894#2"/>
    <trip id="231" depart="231.00" from="-888677947#0" to="1426619893#4"/>
    <trip id="232" depart="232.00" from="-888681167#3" to="-365911688"/>
    <trip id="233" depart="233.00" from="-888681171#1" to="888702224"/>
    <trip id="234" depart="234.00" from="1414277825#1" to="440707884#8"/>
    <trip id="235" depart="235.00" from="843406141#5" to="758322866"/>
    <trip id="236" depart="236.00" from="-849820933" to="-1020249625"/>
    <trip id="237" depart="237.00" from="-844157574#0" to="748093427#1"/>
    <trip id="238" depart="238.00" from="843406139" to="959196950"/>
    <trip id="239" depart="239.00" from="-888681169#2" to="745535001#2"/>
    <trip id="240" depart="240.00" from="1168582834#5" to="188237538#0"/>
    <trip id="241" depart="241.00" from="-365911690#2" to="-543026823"/>
    <trip id="242" depart="242.00" from="-888703299#0" to="-1220218803#0"/>
    <trip id="243" depart="243.00" from="-817507717" to="334681603#5"/>
    <trip id="244" depart="244.00" from="-888677941" to="-188566088#8"/>
    <trip id="245" depart="245.00" from="-959149888" to="-188240112"/>
    <trip id="246" depart="246.00" from="177318037#6" to="-1219517938"/>
    <trip id="247" depart="247.00" from="-857784557" to="154145259#1"/>
    <trip id="248" depart="248.00" from="-1219515929" to="188566088#3"/>
    <trip id="249" depart="249.00" from="-188237538#0" to="-960121508#1"/>
    <trip id="250" depart="250.00" from="-1309445788" to="-888681171#2"/>
    <trip id="251" depart="251.00" from="-334681603#5" to="-844157574#1"/>
    <trip id="252" depart="252.00" from="619162423#2" to="-888681171#2"/>
    <trip id="253" depart="253.00" from="586611478#1" to="844196145"/>
    <trip id="254" depart="254.00" from="-666604081#2" to="-151570456#0"/>
    <trip id="255" depart="255.00" from="-1168582834#2" to="1414376391"/>
    <trip id="256" depart="256.00" from="982804193" to="-857725596#2"/>
    <trip id="257" depart="257.00" from="188237538#0" to="761921464"/>
    <trip id="258" depart="258.00" from="188237538#3" to="749683652"/>
    <trip id="259" depart="259.00" from="959067692" to="-334681603#4"/>
    <trip id="260" depart="260.00" from="-1168582834#4" to="-188242398#8"/>
    <trip id="261" depart="261.00" from="-178789633#1" to="31858865#1"/>
    <trip id="262" depart="262.00" from="1263634673#3" to="-522449322#2"/>
    <trip id="263" depart="263.00" from="240962299#1" to="758860818#2"/>
    <trip id="264" depart="264.00" from="-188316237#2" to="188237543#2"/>
    <trip id="265" depart="265.00" from="522449322#1" to="-178789633#6"/>
    <trip id="266" depart="266.00" from="759478525" to="959202218"/>
    <trip id="267" depart="267.00" from="-177318056#0" to="-1219515931"/>
    <trip id="268" depart="268.00" from="-759478524#1" to="334681603#1"/>
    <trip id="269" depart="269.00" from="959194445" to="-889113173#2"/>
    <trip id="270" depart="270.00" from="315285501#3" to="-150201803"/>
    <trip id="271" depart="271.00" from="188566088#17" to="188242395#8"/>
    <trip id="272" depart="272.00" from="-177318029#7" to="758860835#1"/>
    <trip id="273" depart="273.00" from="842131583#1" to="188237506#4"/>
    <trip id="274" depart="274.00" from="-178782089#26" to="959919137"/>
    <trip id="275" depart="275.00" from="672802137#4" to="-849822493#1"/>
    <trip id="276" depart="276.00" from="-888685999#1" to="-888677949#0"/>
    <trip id="277" depart="277.00" from="-959598032" to="-848083102#0"/>
    <trip id="278" depart="278.00" from="837232084" to="844155818"/>
    <trip id="279" depart="279.00" from="-177318037#4" to="959201280"/>
    <trip id="280" depart="280.00" from="178782089#23" to="844196143#3"/>
    <trip id="281" depart="281.00" from="27814172#6" to="-959199685"/>
    <trip id="282" depart="282.00" from="365911683" to="959202426"/>
    <trip id="283" depart="283.00" from="-672802137#8" to="831852345"/>
    <trip id="284" depart="284.00" from="1168442256#1" to="1168540700"/>
    <trip id="285" depart="285.00" from="-888703299#0" to="666625335#4"/>
    <trip id="286" depart="286.00" from="-672802137#5" to="849821987"/>
    <trip id="287" depart="287.00" from="799306143#1" to="-177318029#2"/>
    <trip id="288" depart="288.00" from="857725596#1" to="-666610680#4"/>
    <trip id="289" depart="289.00" from="-959067438#0" to="188240123#0"/>
    <trip id="290" depart="290.00" from="-849820239#1" to="-1220218802"/>
    <trip id="291" depart="291.00" from="842131583#2" to="-315285497#4"/>
    <trip id="292" depart="292.00" from="-334681603#6" to="817146417#1"/>
    <trip id="293" depart="293.00" from="-831858059#0" to="888677948#1"/>
    <trip id="294" depart="294.00" from="240962299#3" to="-758322864#0"/>
    <trip id="295" depart="295.00" from="-1049857382" to="959194149"/>
    <trip id="296" depart="296.00" from="-1426619897#3" to="666604081#0"/>
    <trip id="297" depart="297.00" from="-959199022" to="754801618"/>
    <trip id="298" depart="298.00" from="188566088#17" to="188575025#0"/>
    <trip id="299" depart="299.00" from="-959201555" to="799306143#1"/>
    <trip id="300" depart="300.00" from="-151570327#1" to="-586611478#0"/>
    <trip id="301" depart="301.00" from="188566088#3" to="-817146418#1"/>
    <trip id="302" depart="302.00" from="1414220391#0" to="1020248259"/>
    <trip id="303" depart="303.00" from="1018201339" to="-959194445"/>
    <trip id="304" depart="304.00" from="470866468#0" to="-844175074"/>
    <trip id="305" depart="305.00" from="240962299#7" to="-754801381#0"/>
    <trip id="306" depart="306.00" from="-666604081#0" to="-188237506#8"/>
    <trip id="307" depart="307.00" from="-315285497#2" to="-188237506#6"/>
    <trip id="308" depart="308.00" from="1049857380" to="758322861"/>
    <trip id="309" depart="309.00" from="-240962299#5" to="-470866468#1"/>
    <trip id="310" depart="310.00" from="-959197772" to="666608620#2"/>
    <trip id="311" depart="311.00" from="959597043#1" to="1377396916"/>
    <trip id="312" depart="312.00" from="-746831441#1" to="-178782089#12"/>
    <trip id="313" depart="313.00" from="-315285497#5" to="-618490368"/>
    <trip id="314" depart="314.00" from="-188575025#2" to="-1168582834#11"/>
    <trip id="315" depart="315.00" from="959203278" to="1426619897#3"/>
    <trip id="316" depart="316.00" from="188575025#5" to="-188240109#0"/>
    <trip id="317" depart="317.00" from="844212627#0" to="1168582835"/>
    <trip id="318" depart="318.00" from="-959150626" to="-959202219"/>
    <trip id="319" depart="319.00" from="-240962299#4" to="-1377424688"/>
    <trip id="320" depart="320.00" from="901549237" to="1049857382"/>
    <trip id="321" depart="321.00" from="797967632#1" to="-889113183#4"/>
    <trip id="322" depart="322.00" from="-1426619893#2" to="188242398#2"/>
    <trip id="323" depart="323.00" from="-1366488758#5" to="-188242398#10"/>
    <trip id="324" depart="324.00" from="1263634673#1" to="-817138225#1"/>
    <trip id="325" depart="325.00" from="960121508#1" to="-188237506#3"/>
    <trip id="326" depart="326.00" from="666588674#1" to="188237543#0"/>
    <trip id="327" depart="327.00" from="-960935967" to="-959918773#1"/>
    <trip id="328" depart="328.00" from="-889113175#1" to="857726621#0"/>
    <trip id="329" depart="329.00" from="959921891" to="-817146418#0"/>
    <trip id="330" depart="330.00" from="177318037#3" to="188240114#1"/>
    <trip id="331" depart="331.00" from="397239655" to="959193887"/>
    <trip id="332" depart="332.00" from="-31858865#6" to="-440707884#0"/>
    <trip id="333" depart="333.00" from="188240123#11" to="-188566088#0"/>
    <trip id="334" depart="334.00" from="-188566088#17" to="-1426685141#2"/>
    <trip id="335" depart="335.00" from="-1018201341" to="-959918773#1"/>
    <trip id="336" depart="336.00" from="1426619894#3" to="-797526480"/>
    <trip id="337" depart="337.00" from="-540413272" to="598071471"/>
    <trip id="338" depart="338.00" from="240962299#7" to="-959919069"/>
    <trip id="339" depart="339.00" from="188566088#10" to="900201986"/>
    <trip id="340" depart="340.00" from="744797401#0" to="188242395#3"/>
    <trip id="341" depart="341.00" from="188240123#13" to="946193463#1"/>
    <trip id="342" depart="342.00" from="188237506#4" to="888902518#0"/>
    <trip id="343" depart="343.00" from="799306137#3" to="-1426619897#0"/>
    <trip id="344" depart="344.00" from="-188244713#0" to="-817507709#0"/>
    <trip id="345" depart="345.00" from="522467751" to="177318029#6"/>
    <trip id="346" depart="346.00" from="-754801381#0" to="-188237543#1"/>
    <trip id="347" depart="347.00" from="188566088#13" to="522467751"/>
    <trip id="348" depart="348.00" from="918886808#1" to="1227307817#1"/>
    <trip id="349" depart="349.00" from="-959202218" to="-151570455#1"/>
    <trip id="350" depart="350.00" from="-1306278156#0" to="-959197772"/>
    <trip id="351" depart="351.00" from="-799306140#2" to="-672802137#0"/>
    <trip id="352" depart="352.00" from="-151363594#2" to="959201555"/>
    <trip id="353" depart="353.00" from="817146418#1" to="177318037#9"/>
    <trip id="354" depart="354.00" from="959068161" to="982804193"/>
    <trip id="355" depart="355.00" from="188242395#0" to="-754799434#0"/>
    <trip id="356" depart="356.00" from="-1306278156#0" to="754799434#0"/>
    <trip id="357" depart="357.00" from="-959151127" to="240962299#3"/>
    <trip id="358" depart="358.00" from="888685998#0" to="-315285497#4"/>
    <trip id="359" depart="359.00" from="1414301922#2" to="188316237#1"/>
    <trip id="360" depart="360.00" from="-959202037" to="-177318037#2"/>
    <trip id="361" depart="361.00" from="-843406141#1" to="-844196144#0"/>
    <trip id="362" depart="362.00" from="188240132#7" to="849823458"/>
    <trip id="363" depart="363.00" from="-817146418#0" to="440707884#4"/>
    <trip id="364" depart="364.00" from="-754799434#1" to="959152023"/>
    <trip id="365" depart="365.00" from="758909546" to="1426619896#5"/>
    <trip id="366" depart="366.00" from="-901549236" to="-831858059#1"/>
    <trip id="367" depart="367.00" from="-799306142#1" to="959597043#0"/>
    <trip id="368" depart="368.00" from="-888677940" to="1309445782#0"/>
    <trip id="369" depart="369.00" from="959919957" to="27814172#5"/>
    <trip id="370" depart="370.00" from="1168582834#10" to="-918886808#7"/>
    <trip id="371" depart="371.00" from="-27814172#0" to="-888471604"/>
    <trip id="372" depart="372.00" from="598072346#0" to="188242395#4"/>
    <trip id="373" depart="373.00" from="619162423#0" to="-365911681"/>
    <trip id="374" depart="374.00" from="1198922227" to="918886808#1"/>
    <trip id="375" depart="375.00" from="-888902518#1" to="522449322#1"/>
    <trip id="376" depart="376.00" from="-178782089#26" to="959597345"/>
    <trip id="377" depart="377.00" from="151570455#0" to="-666604758#0"/>
    <trip id="378" depart="378.00" from="-188242395#5" to="1426619896#7"/>
    <trip id="379" depart="379.00" from="1219510081" to="-177318037#6"/>
    <trip id="380" depart="380.00" from="960100349" to="889113174"/>
    <trip id="381" depart="381.00" from="-945796619" to="-188237506#1"/>
    <trip id="382" depart="382.00" from="799306144#1" to="1220218803#2"/>
    <trip id="383" depart="383.00" from="315285501#6" to="1306278156#2"/>
    <trip id="384" depart="384.00" from="-739457630#2" to="844212629#0"/>
    <trip id="385" depart="385.00" from="959597664" to="-666610680#4"/>
    <trip id="386" depart="386.00" from="1219506609" to="-888685998#0"/>
    <trip id="387" depart="387.00" from="888702224" to="1306278156#1"/>
    <trip id="388" depart="388.00" from="849822493#0" to="857729975"/>
    <trip id="389" depart="389.00" from="-744797402#3" to="799306140#0"/>
    <trip id="390" depart="390.00" from="-888681167#1" to="958069531"/>
    <trip id="391" depart="391.00" from="-959918773#1" to="843406141#5"/>
    <trip id="392" depart="392.00" from="-746831441#1" to="-799306140#1"/>
    <trip id="393" depart="393.00" from="1414303322" to="961612528"/>
    <trip id="394" depart="394.00" from="-959201052" to="-188242398#1"/>
    <trip id="395" depart="395.00" from="1168442256#1" to="-849420096#0"/>
    <trip id="396" depart="396.00" from="1219510080" to="1426619893#5"/>
    <trip id="397" depart="397.00" from="-901549237" to="-843406141#0"/>
    <trip id="398" depart="398.00" from="-27814172#2" to="470866468#2"/>
    <trip id="399" depart="399.00" from="1309445783#0" to="-666588337#2"/>
    <trip id="400" depart="400.00" from="666614656" to="-1309445783#1"/>
    <trip id="401" depart="401.00" from="440707884#8" to="586611478#5"/>
    <trip id="402" depart="402.00" from="758860832#1" to="-888696105"/>
    <trip id="403" depart="403.00" from="188240123#6" to="843406141#5"/>
    <trip id="404" depart="404.00" from="959598031" to="1219515930"/>
    <trip id="405" depart="405.00" from="-1266770304#1" to="1263634673#0"/>
    <trip id="406" depart="406.00" from="1426619893#2" to="860142347#3"/>