<additional>
    <vType id="DEFAULT_VEHTYPE" guiShape="taxi" color="yellow" width="2.0" length="5.0"/>
</additional>

