<?xml version="1.0" encoding="UTF-8"?>

<!-- generated on 2026-03-31T22:20:07.375745+05:30 by Eclipse SUMO netconvert 1.26.0
<netconvertConfiguration xmlns:xsi="http://www.w3.org/2001/XMLSchema-instance" xsi:noNamespaceSchemaLocation="http://sumo.dlr.de/xsd/netconvertConfiguration.xsd">

    <input>
        <osm-files value="map.osm"/>
    </input>

    <output>
        <output-file value="map.net.xml"/>
    </output>

    <projection>
        <proj.utm value="true"/>
    </projection>

</netconvertConfiguration>
-->

<net version="1.20" junctionCornerDetail="5" limitTurnSpeed="5.50" xmlns:xsi="http://www.w3.org/2001/XMLSchema-instance" xsi:noNamespaceSchemaLocation="http://sumo.dlr.de/xsd/net_file.xsd">

    <location netOffset="-692101.09,-995319.22" convBoundary="0.00,0.00,2084.03,1365.42" origBoundary="76.747540,9.000000,76.766449,9.012423" projParameter="+proj=utm +zone=43 +ellps=WGS84 +datum=WGS84 +units=m +no_defs"/>

    <type id="highway.living_street" priority="2" numLanes="1" speed="2.78" disallow="tram rail_urban rail rail_electric rail_fast ship container cable_car subway aircraft wheelchair scooter drone" oneway="0"/>
    <type id="highway.residential" priority="3" numLanes="1" speed="13.89" disallow="tram rail_urban rail rail_electric rail_fast ship container cable_car subway aircraft wheelchair scooter drone" oneway="0"/>
    <type id="highway.unclassified" priority="4" numLanes="1" speed="13.89" disallow="tram rail_urban rail rail_electric rail_fast ship container cable_car subway aircraft wheelchair scooter drone" oneway="0"/>

    <edge id=":12139542726_0" function="internal">
        <lane id=":12139542726_0_0" index="0" disallow="tram rail_urban rail rail_electric rail_fast ship container cable_car subway aircraft wheelchair scooter drone" speed="3.65" length="4.67" shape="1027.03,449.74 1025.61,449.48 1024.93,448.90 1024.98,448.01 1025.77,446.80"/>
    </edge>
    <edge id=":12139542727_0" function="internal">
        <lane id=":12139542727_0_0" index="0" disallow="tram rail_urban rail rail_electric rail_fast ship container cable_car subway aircraft wheelchair scooter drone" speed="13.89" length="17.18" shape="1555.52,392.13 1551.58,393.26 1547.26,394.54 1543.00,395.98 1539.26,397.61"/>
    </edge>
    <edge id=":12139542727_1" function="internal">
        <lane id=":12139542727_1_0" index="0" disallow="tram rail_urban rail rail_electric rail_fast ship container cable_car subway aircraft wheelchair scooter drone" speed="12.26" length="19.63" shape="1555.52,392.13 1550.10,393.21 1545.19,393.08 1540.81,391.76 1536.95,389.23"/>
    </edge>
    <edge id=":12139542727_2" function="internal">
        <lane id=":12139542727_2_0" index="0" disallow="tram rail_urban rail rail_electric rail_fast ship container cable_car subway aircraft wheelchair scooter drone" speed="3.76" length="1.42" shape="1555.52,392.13 1554.46,391.20"/>
    </edge>
    <edge id=":12139542727_9" function="internal">
        <lane id=":12139542727_9_0" index="0" disallow="tram rail_urban rail rail_electric rail_fast ship container cable_car subway aircraft wheelchair scooter drone" speed="3.76" length="3.66" shape="1554.46,391.20 1554.35,391.10 1554.04,390.18 1554.59,389.37 1556.00,388.69"/>
    </edge>
    <edge id=":12139542727_3" function="internal">
        <lane id=":12139542727_3_0" index="0" disallow="tram rail_urban rail rail_electric rail_fast ship container cable_car subway aircraft wheelchair scooter drone" speed="12.18" length="19.47" shape="1537.63,385.58 1541.54,388.18 1545.90,389.56 1550.72,389.73 1556.00,388.69"/>
    </edge>
    <edge id=":12139542727_4" function="internal">
        <lane id=":12139542727_4_0" index="0" disallow="tram rail_urban rail rail_electric rail_fast ship container cable_car subway aircraft wheelchair scooter drone" speed="7.34" length="4.13" shape="1537.63,385.58 1540.47,388.57"/>
    </edge>
    <edge id=":12139542727_5" function="internal">
        <lane id=":12139542727_5_0" index="0" disallow="tram rail_urban rail rail_electric rail_fast ship container cable_car subway aircraft wheelchair scooter drone" speed="3.84" length="4.86" shape="1537.63,385.58 1538.83,386.75 1539.11,387.74 1538.49,388.57 1537.47,389.01"/>
    </edge>
    <edge id=":12139542727_10" function="internal">
        <lane id=":12139542727_10_0" index="0" disallow="tram rail_urban rail rail_electric rail_fast ship container cable_car subway aircraft wheelchair scooter drone" speed="7.34" length="11.03" shape="1540.47,388.57 1541.21,389.35 1542.67,392.61 1542.02,395.37 1539.26,397.61"/>
    </edge>
    <edge id=":12139542727_11" function="internal">
        <lane id=":12139542727_11_0" index="0" disallow="tram rail_urban rail rail_electric rail_fast ship container cable_car subway aircraft wheelchair scooter drone" speed="3.84" length="0.56" shape="1537.47,389.01 1536.95,389.23"/>
    </edge>
    <edge id=":12139542727_6" function="internal">
        <lane id=":12139542727_6_0" index="0" disallow="tram rail_urban rail rail_electric rail_fast ship container cable_car subway aircraft wheelchair scooter drone" speed="5.21" length="6.98" shape="1537.78,394.77 1539.03,393.75 1539.31,392.48 1538.61,390.98 1536.95,389.23"/>
    </edge>
    <edge id=":12139542727_7" function="internal">
        <lane id=":12139542727_7_0" index="0" disallow="tram rail_urban rail rail_electric rail_fast ship container cable_car subway aircraft wheelchair scooter drone" speed="13.89" length="19.22" shape="1537.78,394.77 1541.83,393.05 1546.76,391.40 1551.75,389.92 1556.00,388.69"/>
    </edge>
    <edge id=":12139542727_8" function="internal">
        <lane id=":12139542727_8_0" index="0" disallow="tram rail_urban rail rail_electric rail_fast ship container cable_car subway aircraft wheelchair scooter drone" speed="3.65" length="4.67" shape="1537.78,394.77 1539.22,394.93 1539.94,395.45 1539.95,396.35 1539.26,397.61"/>
    </edge>
    <edge id=":12139542731_0" function="internal">
        <lane id=":12139542731_0_0" index="0" disallow="tram rail_urban rail rail_electric rail_fast ship container cable_car subway aircraft wheelchair scooter drone" speed="13.74" length="14.33" shape="1358.81,550.49 1356.93,547.32 1354.80,544.46 1352.25,542.08 1349.12,540.33"/>
    </edge>
    <edge id=":12139542731_1" function="internal">
        <lane id=":12139542731_1_0" index="0" disallow="tram rail_urban rail rail_electric rail_fast ship container cable_car subway aircraft wheelchair scooter drone" speed="8.47" length="4.38" shape="1358.81,550.49 1357.24,546.61 1357.23,546.42"/>
    </edge>
    <edge id=":12139542731_2" function="internal">
        <lane id=":12139542731_2_0" index="0" disallow="tram rail_urban rail rail_electric rail_fast ship container cable_car subway aircraft wheelchair scooter drone" speed="3.68" length="1.61" shape="1358.81,550.49 1358.60,549.03 1358.65,548.90"/>
    </edge>
    <edge id=":12139542731_9" function="internal">
        <lane id=":12139542731_9_0" index="0" disallow="tram rail_urban rail rail_electric rail_fast ship container cable_car subway aircraft wheelchair scooter drone" speed="8.47" length="10.14" shape="1357.23,546.42 1357.06,543.16 1358.25,540.15 1360.83,537.57"/>
    </edge>
    <edge id=":12139542731_10" function="internal">
        <lane id=":12139542731_10_0" index="0" disallow="tram rail_urban rail rail_electric rail_fast ship container cable_car subway aircraft wheelchair scooter drone" speed="3.68" length="3.18" shape="1358.65,548.90 1358.94,548.17 1359.82,547.93 1361.26,548.30"/>
    </edge>
    <edge id=":12139542731_3" function="internal">
        <lane id=":12139542731_3_0" index="0" disallow="tram rail_urban rail rail_electric rail_fast ship container cable_car subway aircraft wheelchair scooter drone" speed="6.85" length="9.18" shape="1362.70,540.17 1361.02,541.82 1360.22,543.73 1360.30,545.89 1361.26,548.30"/>
    </edge>
    <edge id=":12139542731_4" function="internal">
        <lane id=":12139542731_4_0" index="0" disallow="tram rail_urban rail rail_electric rail_fast ship container cable_car subway aircraft wheelchair scooter drone" speed="10.46" length="14.16" shape="1362.70,540.17 1359.99,541.52 1356.82,542.00 1353.20,541.61 1349.12,540.33"/>
    </edge>
    <edge id=":12139542731_5" function="internal">
        <lane id=":12139542731_5_0" index="0" disallow="tram rail_urban rail rail_electric rail_fast ship container cable_car subway aircraft wheelchair scooter drone" speed="3.65" length="4.67" shape="1362.70,540.17 1361.26,540.22 1360.47,539.81 1360.33,538.92 1360.83,537.57"/>
    </edge>
    <edge id=":12139542731_6" function="internal">
        <lane id=":12139542731_6_0" index="0" disallow="tram rail_urban rail rail_electric rail_fast ship container cable_car subway aircraft wheelchair scooter drone" speed="8.68" length="9.56" shape="1351.68,537.91 1354.35,538.72 1356.77,538.94 1358.93,538.55 1360.83,537.57"/>
    </edge>
    <edge id=":12139542731_7" function="internal">
        <lane id=":12139542731_7_0" index="0" disallow="tram rail_urban rail rail_electric rail_fast ship container cable_car subway aircraft wheelchair scooter drone" speed="13.78" length="14.42" shape="1351.68,537.91 1354.79,539.69 1357.30,542.15 1359.40,545.09 1361.26,548.30"/>
    </edge>
    <edge id=":12139542731_8" function="internal">
        <lane id=":12139542731_8_0" index="0" disallow="tram rail_urban rail rail_electric rail_fast ship container cable_car subway aircraft wheelchair scooter drone" speed="3.77" length="1.59" shape="1351.68,537.91 1351.95,539.47"/>
    </edge>
    <edge id=":12139542731_11" function="internal">
        <lane id=":12139542731_11_0" index="0" disallow="tram rail_urban rail rail_electric rail_fast ship container cable_car subway aircraft wheelchair scooter drone" speed="3.77" length="3.56" shape="1351.95,539.47 1351.61,540.40 1350.67,540.68 1349.12,540.33"/>
    </edge>
    <edge id=":12139542733_0" function="internal">
        <lane id=":12139542733_0_0" index="0" disallow="tram rail_urban rail rail_electric rail_fast ship container cable_car subway aircraft wheelchair scooter drone" speed="13.89" length="12.92" shape="1783.73,518.11 1781.86,515.22 1780.04,512.79 1777.95,510.60 1775.28,508.47"/>
    </edge>
    <edge id=":12139542733_1" function="internal">
        <lane id=":12139542733_1_0" index="0" disallow="tram rail_urban rail rail_electric rail_fast ship container cable_car subway aircraft wheelchair scooter drone" speed="7.64" length="4.11" shape="1783.73,518.11 1782.06,514.35"/>
    </edge>
    <edge id=":12139542733_2" function="internal">
        <lane id=":12139542733_2_0" index="0" disallow="tram rail_urban rail rail_electric rail_fast ship container cable_car subway aircraft wheelchair scooter drone" speed="3.65" length="1.44" shape="1783.73,518.11 1783.77,516.67"/>
    </edge>
    <edge id=":12139542733_9" function="internal">
        <lane id=":12139542733_9_0" index="0" disallow="tram rail_urban rail rail_electric rail_fast ship container cable_car subway aircraft wheelchair scooter drone" speed="7.64" length="11.09" shape="1782.06,514.35 1781.98,514.16 1782.10,510.88 1784.10,508.28 1787.97,506.36"/>
    </edge>
    <edge id=":12139542733_10" function="internal">
        <lane id=":12139542733_10_0" index="0" disallow="tram rail_urban rail rail_electric rail_fast ship container cable_car subway aircraft wheelchair scooter drone" speed="3.65" length="3.23" shape="1783.77,516.67 1784.23,515.90 1785.12,515.82 1786.44,516.41"/>
    </edge>
    <edge id=":12139542733_3" function="internal">
        <lane id=":12139542733_3_0" index="0" disallow="tram rail_urban rail rail_electric rail_fast ship container cable_car subway aircraft wheelchair scooter drone" speed="6.05" length="9.07" shape="1788.97,509.40 1786.66,510.55 1785.47,512.10 1785.39,514.05 1786.44,516.41"/>
    </edge>
    <edge id=":12139542733_4" function="internal">
        <lane id=":12139542733_4_0" index="0" disallow="tram rail_urban rail rail_electric rail_fast ship container cable_car subway aircraft wheelchair scooter drone" speed="10.99" length="14.22" shape="1788.97,509.40 1784.95,510.39 1781.33,510.56 1778.10,509.92 1775.28,508.47"/>
    </edge>
    <edge id=":12139542733_5" function="internal">
        <lane id=":12139542733_5_0" index="0" disallow="tram rail_urban rail rail_electric rail_fast ship container cable_car subway aircraft wheelchair scooter drone" speed="3.65" length="4.67" shape="1788.97,509.40 1787.58,509.02 1786.95,508.38 1787.08,507.50 1787.97,506.36"/>
    </edge>
    <edge id=":12139542733_6" function="internal">
        <lane id=":12139542733_6_0" index="0" disallow="tram rail_urban rail rail_electric rail_fast ship container cable_car subway aircraft wheelchair scooter drone" speed="9.81" length="11.24" shape="1777.13,505.86 1779.28,506.93 1781.80,507.37 1784.70,507.18 1787.97,506.36"/>
    </edge>
    <edge id=":12139542733_7" function="internal">
        <lane id=":12139542733_7_0" index="0" disallow="tram rail_urban rail rail_electric rail_fast ship container cable_car subway aircraft wheelchair scooter drone" speed="13.89" length="14.16" shape="1777.13,505.86 1779.94,508.13 1782.32,510.63 1784.44,513.38 1786.44,516.41"/>
    </edge>
    <edge id=":12139542733_8" function="internal">
        <lane id=":12139542733_8_0" index="0" disallow="tram rail_urban rail rail_electric rail_fast ship container cable_car subway aircraft wheelchair scooter drone" speed="3.65" length="1.44" shape="1777.13,505.86 1777.65,507.21"/>
    </edge>
    <edge id=":12139542733_11" function="internal">
        <lane id=":12139542733_11_0" index="0" disallow="tram rail_urban rail rail_electric rail_fast ship container cable_car subway aircraft wheelchair scooter drone" speed="3.65" length="3.23" shape="1777.65,507.21 1777.51,508.09 1776.73,508.51 1775.28,508.47"/>
    </edge>
    <edge id=":12139542738_0" function="internal">
        <lane id=":12139542738_0_0" index="0" disallow="tram rail_urban rail rail_electric rail_fast ship container cable_car subway aircraft wheelchair scooter drone" speed="11.17" length="9.16" shape="1980.53,645.59 1978.65,647.52 1977.55,649.07 1976.96,650.86 1976.57,653.52"/>
    </edge>
    <edge id=":12139542738_1" function="internal">
        <lane id=":12139542738_1_0" index="0" disallow="tram rail_urban rail rail_electric rail_fast ship container cable_car subway aircraft wheelchair scooter drone" speed="8.11" length="3.32" shape="1980.53,645.59 1978.11,647.42 1977.84,647.51"/>
    </edge>
    <edge id=":12139542738_2" function="internal">
        <lane id=":12139542738_2_0" index="0" disallow="tram rail_urban rail rail_electric rail_fast ship container cable_car subway aircraft wheelchair scooter drone" speed="3.65" length="1.44" shape="1980.53,645.59 1979.11,645.87"/>
    </edge>
    <edge id=":12139542738_9" function="internal">
        <lane id=":12139542738_9_0" index="0" disallow="tram rail_urban rail rail_electric rail_fast ship container cable_car subway aircraft wheelchair scooter drone" speed="8.11" length="8.11" shape="1977.84,647.51 1975.56,648.26 1972.88,648.12 1970.07,647.00"/>
    </edge>
    <edge id=":12139542738_10" function="internal">
        <lane id=":12139542738_10_0" index="0" disallow="tram rail_urban rail rail_electric rail_fast ship container cable_car subway aircraft wheelchair scooter drone" speed="3.65" length="3.23" shape="1979.11,645.87 1978.27,645.58 1977.99,644.72 1978.29,643.31"/>
    </edge>
    <edge id=":12139542738_3" function="internal">
        <lane id=":12139542738_3_0" index="0" disallow="tram rail_urban rail rail_electric rail_fast ship container cable_car subway aircraft wheelchair scooter drone" speed="6.59" length="7.27" shape="1971.63,644.21 1973.42,644.92 1975.13,645.01 1976.75,644.47 1978.29,643.31"/>
    </edge>
    <edge id=":12139542738_4" function="internal">
        <lane id=":12139542738_4_0" index="0" disallow="tram rail_urban rail rail_electric rail_fast ship container cable_car subway aircraft wheelchair scooter drone" speed="8.49" length="11.23" shape="1971.63,644.21 1974.05,645.97 1975.68,648.11 1976.52,650.63 1976.57,653.52"/>
    </edge>
    <edge id=":12139542738_5" function="internal">
        <lane id=":12139542738_5_0" index="0" disallow="tram rail_urban rail rail_electric rail_fast ship container cable_car subway aircraft wheelchair scooter drone" speed="3.65" length="4.67" shape="1971.63,644.21 1972.28,645.49 1972.24,646.39 1971.50,646.89 1970.07,647.00"/>
    </edge>
    <edge id=":12139542738_6" function="internal">
        <lane id=":12139542738_6_0" index="0" disallow="tram rail_urban rail rail_electric rail_fast ship container cable_car subway aircraft wheelchair scooter drone" speed="7.02" length="7.45" shape="1973.39,653.16 1973.35,651.26 1972.79,649.60 1971.69,648.18 1970.07,647.00"/>
    </edge>
    <edge id=":12139542738_7" function="internal">
        <lane id=":12139542738_7_0" index="0" disallow="tram rail_urban rail rail_electric rail_fast ship container cable_car subway aircraft wheelchair scooter drone" speed="12.37" length="11.32" shape="1973.39,653.16 1973.89,650.01 1974.71,647.69 1976.10,645.63 1978.29,643.31"/>
    </edge>
    <edge id=":12139542738_8" function="internal">
        <lane id=":12139542738_8_0" index="0" disallow="tram rail_urban rail rail_electric rail_fast ship container cable_car subway aircraft wheelchair scooter drone" speed="3.65" length="1.44" shape="1973.39,653.16 1974.32,652.05"/>
    </edge>
    <edge id=":12139542738_11" function="internal">
        <lane id=":12139542738_11_0" index="0" disallow="tram rail_urban rail rail_electric rail_fast ship container cable_car subway aircraft wheelchair scooter drone" speed="3.65" length="3.23" shape="1974.32,652.05 1975.16,651.75 1975.91,652.23 1976.57,653.52"/>
    </edge>
    <edge id=":12139542740_0" function="internal">
        <lane id=":12139542740_0_0" index="0" disallow="tram rail_urban rail rail_electric rail_fast ship container cable_car subway aircraft wheelchair scooter drone" speed="6.42" length="9.09" shape="2005.41,552.16 2002.94,552.34 2001.16,553.29 2000.06,555.02 1999.64,557.53"/>
    </edge>
    <edge id=":12139542740_1" function="internal">
        <lane id=":12139542740_1_0" index="0" disallow="tram rail_urban rail rail_electric rail_fast ship container cable_car subway aircraft wheelchair scooter drone" speed="13.89" length="14.40" shape="2005.41,552.16 1991.02,551.51"/>
    </edge>
    <edge id=":12139542740_2" function="internal">
        <lane id=":12139542740_2_0" index="0" disallow="tram rail_urban rail rail_electric rail_fast ship container cable_car subway aircraft wheelchair scooter drone" speed="3.65" length="4.68" shape="2005.41,552.16 2004.25,551.30 2003.88,550.49 2004.32,549.71 2005.55,548.96"/>
    </edge>
    <edge id=":12139542740_3" function="internal">
        <lane id=":12139542740_3_0" index="0" disallow="tram rail_urban rail rail_electric rail_fast ship container cable_car subway aircraft wheelchair scooter drone" speed="13.89" length="14.40" shape="1991.17,548.32 2005.55,548.96"/>
    </edge>
    <edge id=":12139542740_4" function="internal">
        <lane id=":12139542740_4_0" index="0" disallow="tram rail_urban rail rail_electric rail_fast ship container cable_car subway aircraft wheelchair scooter drone" speed="8.06" length="14.22" shape="1991.17,548.32 1994.96,549.04 1997.64,550.81 1999.20,553.64 1999.64,557.53"/>
    </edge>
    <edge id=":12139542740_5" function="internal">
        <lane id=":12139542740_5_0" index="0" disallow="tram rail_urban rail rail_electric rail_fast ship container cable_car subway aircraft wheelchair scooter drone" speed="3.65" length="4.67" shape="1991.17,548.32 1992.33,549.17 1992.69,549.98 1992.26,550.77 1991.02,551.51"/>
    </edge>
    <edge id=":12139542740_6" function="internal">
        <lane id=":12139542740_6_0" index="0" disallow="tram rail_urban rail rail_electric rail_fast ship container cable_car subway aircraft wheelchair scooter drone" speed="6.58" length="9.13" shape="1996.44,557.45 1996.16,554.94 1995.16,553.12 1993.45,551.98 1991.02,551.51"/>
    </edge>
    <edge id=":12139542740_7" function="internal">
        <lane id=":12139542740_7_0" index="0" disallow="tram rail_urban rail rail_electric rail_fast ship container cable_car subway aircraft wheelchair scooter drone" speed="7.91" length="14.36" shape="1996.44,557.45 1997.10,553.49 1998.84,550.75 2001.66,549.24 2005.55,548.96"/>
    </edge>
    <edge id=":12139542740_8" function="internal">
        <lane id=":12139542740_8_0" index="0" disallow="tram rail_urban rail rail_electric rail_fast ship container cable_car subway aircraft wheelchair scooter drone" speed="3.65" length="4.67" shape="1996.44,557.45 1997.27,556.27 1998.08,555.89 1998.87,556.31 1999.64,557.53"/>
    </edge>
    <edge id=":12139542754_0" function="internal">
        <lane id=":12139542754_0_0" index="0" disallow="tram rail_urban rail rail_electric rail_fast ship container cable_car subway aircraft wheelchair scooter drone" speed="3.65" length="4.67" shape="1742.36,662.36 1741.19,661.53 1740.81,660.71 1741.23,659.93 1742.46,659.16"/>
    </edge>
    <edge id=":12139542762_0" function="internal">
        <lane id=":12139542762_0_0" index="0" disallow="tram rail_urban rail rail_electric rail_fast ship container cable_car subway aircraft wheelchair scooter drone" speed="13.89" length="14.87" shape="1874.65,534.87 1871.31,533.15 1868.02,531.37 1864.65,529.88 1861.07,529.02"/>
    </edge>
    <edge id=":12139542762_1" function="internal">
        <lane id=":12139542762_1_0" index="0" disallow="tram rail_urban rail rail_electric rail_fast ship container cable_car subway aircraft wheelchair scooter drone" speed="9.62" length="3.99" shape="1874.65,534.87 1871.79,532.93 1871.49,532.49"/>
    </edge>
    <edge id=":12139542762_2" function="internal">
        <lane id=":12139542762_2_0" index="0" disallow="tram rail_urban rail rail_electric rail_fast ship container cable_car subway aircraft wheelchair scooter drone" speed="3.65" length="1.44" shape="1874.65,534.87 1873.90,533.64"/>
    </edge>
    <edge id=":12139542762_9" function="internal">
        <lane id=":12139542762_9_0" index="0" disallow="tram rail_urban rail rail_electric rail_fast ship container cable_car subway aircraft wheelchair scooter drone" speed="9.62" length="11.08" shape="1871.49,532.49 1869.85,530.14 1868.80,526.53 1868.67,522.08"/>
    </edge>
    <edge id=":12139542762_10" function="internal">
        <lane id=":12139542762_10_0" index="0" disallow="tram rail_urban rail rail_electric rail_fast ship container cable_car subway aircraft wheelchair scooter drone" speed="3.65" length="3.23" shape="1873.90,533.64 1873.87,532.75 1874.57,532.19 1875.99,531.97"/>
    </edge>
    <edge id=":12139542762_3" function="internal">
        <lane id=":12139542762_3_0" index="0" disallow="tram rail_urban rail rail_electric rail_fast ship container cable_car subway aircraft wheelchair scooter drone" speed="8.36" length="11.21" shape="1871.86,522.29 1871.93,525.72 1872.65,528.48 1874.00,530.56 1875.99,531.97"/>
    </edge>
    <edge id=":12139542762_4" function="internal">
        <lane id=":12139542762_4_0" index="0" disallow="tram rail_urban rail rail_electric rail_fast ship container cable_car subway aircraft wheelchair scooter drone" speed="7.97" length="14.59" shape="1871.86,522.29 1870.99,525.68 1868.90,527.93 1865.59,529.04 1861.07,529.02"/>
    </edge>
    <edge id=":12139542762_5" function="internal">
        <lane id=":12139542762_5_0" index="0" disallow="tram rail_urban rail rail_electric rail_fast ship container cable_car subway aircraft wheelchair scooter drone" speed="3.65" length="4.67" shape="1871.86,522.29 1870.98,523.43 1870.16,523.78 1869.39,523.33 1868.67,522.08"/>
    </edge>
    <edge id=":12139542762_6" function="internal">
        <lane id=":12139542762_6_0" index="0" disallow="tram rail_urban rail rail_electric rail_fast ship container cable_car subway aircraft wheelchair scooter drone" speed="6.20" length="8.41" shape="1862.45,525.96 1865.06,525.97 1866.96,525.33 1868.17,524.03 1868.67,522.08"/>
    </edge>
    <edge id=":12139542762_7" function="internal">
        <lane id=":12139542762_7_0" index="0" disallow="tram rail_urban rail rail_electric rail_fast ship container cable_car subway aircraft wheelchair scooter drone" speed="13.89" length="14.90" shape="1862.45,525.96 1866.02,526.84 1869.38,528.39 1872.66,530.23 1875.99,531.97"/>
    </edge>
    <edge id=":12139542762_8" function="internal">
        <lane id=":12139542762_8_0" index="0" disallow="tram rail_urban rail rail_electric rail_fast ship container cable_car subway aircraft wheelchair scooter drone" speed="3.71" length="1.51" shape="1862.45,525.96 1863.25,527.24"/>
    </edge>
    <edge id=":12139542762_11" function="internal">
        <lane id=":12139542762_11_0" index="0" disallow="tram rail_urban rail rail_electric rail_fast ship container cable_car subway aircraft wheelchair scooter drone" speed="3.71" length="3.39" shape="1863.25,527.24 1863.29,528.18 1862.56,528.77 1861.07,529.02"/>
    </edge>
    <edge id=":12139542768_0" function="internal">
        <lane id=":12139542768_0_0" index="0" disallow="tram rail_urban rail rail_electric rail_fast ship container cable_car subway aircraft wheelchair scooter drone" speed="3.65" length="4.67" shape="1419.58,309.81 1418.18,309.43 1417.55,308.80 1417.68,307.91 1418.56,306.77"/>
    </edge>
    <edge id=":12139542770_0" function="internal">
        <lane id=":12139542770_0_0" index="0" disallow="tram rail_urban rail rail_electric rail_fast ship container cable_car subway aircraft wheelchair scooter drone" speed="6.03" length="9.07" shape="1889.13,165.17 1886.72,164.24 1884.77,164.41 1883.30,165.69 1882.29,168.07"/>
    </edge>
    <edge id=":12139542770_1" function="internal">
        <lane id=":12139542770_1_0" index="0" disallow="tram rail_urban rail rail_electric rail_fast ship container cable_car subway aircraft wheelchair scooter drone" speed="13.89" length="14.61" shape="1889.13,165.17 1876.38,158.03"/>
    </edge>
    <edge id=":12139542770_2" function="internal">
        <lane id=":12139542770_2_0" index="0" disallow="tram rail_urban rail rail_electric rail_fast ship container cable_car subway aircraft wheelchair scooter drone" speed="3.65" length="1.44" shape="1889.13,165.17 1888.47,163.88"/>
    </edge>
    <edge id=":12139542770_9" function="internal">
        <lane id=":12139542770_9_0" index="0" disallow="tram rail_urban rail rail_electric rail_fast ship container cable_car subway aircraft wheelchair scooter drone" speed="3.65" length="3.23" shape="1888.47,163.88 1888.52,162.99 1889.26,162.49 1890.69,162.37"/>
    </edge>
    <edge id=":12139542770_3" function="internal">
        <lane id=":12139542770_3_0" index="0" disallow="tram rail_urban rail rail_electric rail_fast ship container cable_car subway aircraft wheelchair scooter drone" speed="13.89" length="14.61" shape="1877.95,155.24 1890.69,162.37"/>
    </edge>
    <edge id=":12139542770_4" function="internal">
        <lane id=":12139542770_4_0" index="0" disallow="tram rail_urban rail rail_electric rail_fast ship container cable_car subway aircraft wheelchair scooter drone" speed="9.00" length="3.73" shape="1877.95,155.24 1880.74,157.45 1880.83,157.60"/>
    </edge>
    <edge id=":12139542770_5" function="internal">
        <lane id=":12139542770_5_0" index="0" disallow="tram rail_urban rail rail_electric rail_fast ship container cable_car subway aircraft wheelchair scooter drone" speed="3.65" length="1.44" shape="1877.95,155.24 1878.60,156.52"/>
    </edge>
    <edge id=":12139542770_10" function="internal">
        <lane id=":12139542770_10_0" index="0" disallow="tram rail_urban rail rail_electric rail_fast ship container cable_car subway aircraft wheelchair scooter drone" speed="9.00" length="10.98" shape="1880.83,157.60 1882.40,160.33 1882.92,163.87 1882.29,168.07"/>
    </edge>
    <edge id=":12139542770_11" function="internal">
        <lane id=":12139542770_11_0" index="0" disallow="tram rail_urban rail rail_electric rail_fast ship container cable_car subway aircraft wheelchair scooter drone" speed="3.65" length="3.23" shape="1878.60,156.52 1878.56,157.42 1877.82,157.92 1876.38,158.03"/>
    </edge>
    <edge id=":12139542770_6" function="internal">
        <lane id=":12139542770_6_0" index="0" disallow="tram rail_urban rail rail_electric rail_fast ship container cable_car subway aircraft wheelchair scooter drone" speed="7.67" length="10.45" shape="1879.20,167.25 1879.68,164.18 1879.37,161.62 1878.27,159.57 1876.38,158.03"/>
    </edge>
    <edge id=":12139542770_7" function="internal">
        <lane id=":12139542770_7_0" index="0" disallow="tram rail_urban rail rail_electric rail_fast ship container cable_car subway aircraft wheelchair scooter drone" speed="7.62" length="15.25" shape="1879.20,167.25 1880.89,163.25 1883.37,161.10 1886.64,160.81 1890.69,162.37"/>
    </edge>
    <edge id=":12139542770_8" function="internal">
        <lane id=":12139542770_8_0" index="0" disallow="tram rail_urban rail rail_electric rail_fast ship container cable_car subway aircraft wheelchair scooter drone" speed="3.65" length="4.67" shape="1879.20,167.25 1880.28,166.29 1881.15,166.11 1881.82,166.70 1882.29,168.07"/>
    </edge>
    <edge id=":12139542772_0" function="internal">
        <lane id=":12139542772_0_0" index="0" disallow="tram rail_urban rail rail_electric rail_fast ship container cable_car subway aircraft wheelchair scooter drone" speed="13.89" length="13.99" shape="1824.79,312.47 1814.00,303.57"/>
    </edge>
    <edge id=":12139542772_1" function="internal">
        <lane id=":12139542772_1_0" index="0" disallow="tram rail_urban rail rail_electric rail_fast ship container cable_car subway aircraft wheelchair scooter drone" speed="8.10" length="14.24" shape="1824.79,312.47 1822.21,309.63 1821.14,306.59 1821.58,303.37 1823.54,299.97"/>
    </edge>