<configuration>
    <input>
        <net-file value="map.net.xml"/>
        <route-files value="routes.rou.xml"/>
        <additional-files value="type.add.xml"/>
        <gui-settings-file value="view.xml"/>
    </input>
</configuration>