<?xml version="1.0" encoding="UTF-8"?>

<!-- generated on 2026-03-31T21:26:49.292068+05:30 by Eclipse SUMO GUI 1.26.0
-->

<sumoConfiguration xmlns:xsi="http://www.w3.org/2001/XMLSchema-instance" xsi:noNamespaceSchemaLocation="http://sumo.dlr.de/xsd/sumoConfiguration.xsd">

    <input>
        <net-file value="../map.net.xml"/>
        <route-files value="../routes.rou.xml"/>
    </input>

</sumoConfiguration>
