<?xml version="1.0" encoding="UTF-8"?>

<!-- generated on 2026-03-31T23:45:40.500481+05:30 by Eclipse SUMO netedit 1.26.0
<neteditConfiguration xmlns:xsi="http://www.w3.org/2001/XMLSchema-instance" xsi:noNamespaceSchemaLocation="http://sumo.dlr.de/xsd/neteditConfiguration.xsd">

    <input>
        <sumocfg-file value="C:\Users\VICTUS\Documents\AI_Project\Intelligent-Traffic-Signal-Control-using-Reinforcement-Learning\Temp\temp4\Test.sumocfg"/>
        <route-files value="C:\Users\VICTUS\Documents\AI_Project\Intelligent-Traffic-Signal-Control-using-Reinforcement-Learning\Temp\temp4\Test.rou.xml"/>
        <sumo-net-file value="C:\Users\VICTUS\Documents\AI_Project\Intelligent-Traffic-Signal-Control-using-Reinforcement-Learning\Temp\temp4\simplemap.net.xml"/>
    </input>

    <output>
        <output-file value="C:\Users\VICTUS\Documents\AI_Project\Intelligent-Traffic-Signal-Control-using-Reinforcement-Learning\Temp\temp4\simplemap.net.xml"/>
    </output>

    <processing>
        <offset.disable-normalization value="true"/>
    </processing>

    <junctions>
        <no-turnarounds value="true"/>
    </junctions>

    <netedit>
        <new-network value="false"/>
    </netedit>

</neteditConfiguration>
-->

<net version="1.20" junctionCornerDetail="5" limitTurnSpeed="5.50" xmlns:xsi="http://www.w3.org/2001/XMLSchema-instance" xsi:noNamespaceSchemaLocation="http://sumo.dlr.de/xsd/net_file.xsd">

    <location netOffset="0.00,0.00" convBoundary="-67.75,-54.58,63.10,44.78" origBoundary="10000000000.00,10000000000.00,-10000000000.00,-10000000000.00" projParameter="!"/>

    <edge id=":J0_0" function="internal">
        <lane id=":J0_0_0" index="0" speed="5.58" length="11.68" shape="-67.81,8.74 -71.38,6.29 -72.55,3.88 -71.32,1.50 -67.69,-0.86"/>
        <lane id=":J0_0_1" index="1" speed="4.72" length="11.68" shape="-67.81,8.74 -70.19,7.11 -70.97,5.50 -70.15,3.91 -67.73,2.34"/>
    </edge>
    <edge id=":J1_0" function="internal">
        <lane id=":J1_0_0" index="0" speed="4.92" length="8.00" shape="63.08,3.02 65.73,4.80 66.61,6.57 65.72,8.34 63.06,10.10"/>
        <lane id=":J1_0_1" index="1" speed="3.91" length="8.00" shape="63.08,3.02 64.53,3.99 65.02,4.95 64.54,5.93 63.09,6.90"/>
    </edge>
    <edge id=":J2_0" function="internal">
        <lane id=":J2_0_0" index="0" speed="5.58" length="11.68" shape="-4.07,44.88 -6.54,48.43 -8.97,49.58 -11.34,48.33 -13.67,44.68"/>
        <lane id=":J2_0_1" index="1" speed="4.72" length="11.68" shape="-4.07,44.88 -5.72,47.24 -7.34,48.01 -8.92,47.18 -10.47,44.75"/>
    </edge>
    <edge id=":J3_0" function="internal">
        <lane id=":J3_0_0" index="0" speed="5.58" length="11.68" shape="-11.63,-54.68 -9.16,-58.23 -6.73,-59.38 -4.36,-58.13 -2.03,-54.48"/>
        <lane id=":J3_0_1" index="1" speed="4.72" length="11.68" shape="-11.63,-54.68 -9.98,-57.05 -8.36,-57.81 -6.78,-56.98 -5.23,-54.55"/>
    </edge>
    <edge id=":clusterJ13_J14_J15_J16_0" function="internal">
        <lane id=":clusterJ13_J14_J15_J16_0_0" index="0" speed="6.63" length="9.34" shape="2.49,9.57 -0.07,9.90 -1.92,10.96 -3.05,12.73 -3.46,15.22"/>
        <lane id=":clusterJ13_J14_J15_J16_0_1" index="1" speed="7.44" length="12.02" shape="2.49,9.57 -1.47,9.89 -4.32,10.93 -6.05,12.68 -6.66,15.15"/>
    </edge>
    <edge id=":clusterJ13_J14_J15_J16_2" function="internal">
        <lane id=":clusterJ13_J14_J15_J16_2_0" index="0" speed="13.89" length="21.06" shape="2.49,9.57 -18.56,9.34"/>
    </edge>
    <edge id=":clusterJ13_J14_J15_J16_3" function="internal">
        <lane id=":clusterJ13_J14_J15_J16_3_0" index="0" speed="10.10" length="23.42" shape="2.49,9.57 -2.94,8.13 -7.83,4.50 -11.35,-0.49 -12.63,-5.95"/>
    </edge>
    <edge id=":clusterJ13_J14_J15_J16_4" function="internal">
        <lane id=":clusterJ13_J14_J15_J16_4_0" index="0" speed="5.61" length="11.82" shape="2.49,9.57 -1.14,7.15 -2.36,4.73 -1.15,2.30 2.48,-0.12"/>
        <lane id=":clusterJ13_J14_J15_J16_4_1" index="1" speed="4.75" length="11.82" shape="2.49,9.57 0.06,7.95 -0.76,6.33 0.05,4.70 2.49,3.08"/>
    </edge>
    <edge id=":clusterJ13_J14_J15_J16_6" function="internal">
        <lane id=":clusterJ13_J14_J15_J16_6_0" index="0" speed="13.89" length="21.01" shape="2.49,6.37 -18.52,6.14"/>
    </edge>
    <edge id=":clusterJ13_J14_J15_J16_7" function="internal">
        <lane id=":clusterJ13_J14_J15_J16_7_0" index="0" speed="9.02" length="18.48" shape="2.49,6.37 -1.79,5.23 -5.65,2.36 -8.42,-1.57 -9.43,-5.88"/>
    </edge>
    <edge id=":clusterJ13_J14_J15_J16_8" function="internal">
        <lane id=":clusterJ13_J14_J15_J16_8_0" index="0" speed="6.46" length="9.03" shape="-3.04,-5.75 -2.73,-3.29 -1.71,-1.53 0.03,-0.47 2.48,-0.12"/>
        <lane id=":clusterJ13_J14_J15_J16_8_1" index="1" speed="7.28" length="11.76" shape="-3.04,-5.75 -2.76,-1.88 -1.75,0.87 0.00,2.53 2.49,3.08"/>
    </edge>
    <edge id=":clusterJ13_J14_J15_J16_10" function="internal">
        <lane id=":clusterJ13_J14_J15_J16_10_0" index="0" speed="13.89" length="20.97" shape="-3.04,-5.75 -3.46,15.22"/>
    </edge>
    <edge id=":clusterJ13_J14_J15_J16_11" function="internal">
        <lane id=":clusterJ13_J14_J15_J16_11_0" index="0" speed="10.16" length="5.44" shape="-3.04,-5.75 -4.46,-0.50"/>
    </edge>
    <edge id=":clusterJ13_J14_J15_J16_12" function="internal">
        <lane id=":clusterJ13_J14_J15_J16_12_0" index="0" speed="5.58" length="6.02" shape="-3.04,-5.75 -5.51,-2.20 -7.09,-1.45"/>
        <lane id=":clusterJ13_J14_J15_J16_12_1" index="1" speed="4.72" length="6.02" shape="-3.04,-5.75 -4.68,-3.38 -6.30,-2.62 -7.44,-3.21"/>
    </edge>
    <edge id=":clusterJ13_J14_J15_J16_14" function="internal">
        <lane id=":clusterJ13_J14_J15_J16_14_0" index="0" speed="13.89" length="20.97" shape="-6.23,-5.82 -6.66,15.15"/>
    </edge>
    <edge id=":clusterJ13_J14_J15_J16_15" function="internal">
        <lane id=":clusterJ13_J14_J15_J16_15_0" index="0" speed="9.09" length="3.00" shape="-6.23,-5.82 -7.02,-2.92"/>
    </edge>
    <edge id=":clusterJ13_J14_J15_J16_32" function="internal">
        <lane id=":clusterJ13_J14_J15_J16_32_0" index="0" speed="10.16" length="17.93" shape="-4.46,-0.50 -4.51,-0.33 -8.15,4.54 -13.11,8.04 -18.56,9.34"/>
    </edge>
    <edge id=":clusterJ13_J14_J15_J16_33" function="internal">
        <lane id=":clusterJ13_J14_J15_J16_33_0" index="0" speed="5.58" length="7.94" shape="-7.09,-1.45 -7.93,-1.05 -10.31,-2.30 -12.63,-5.95"/>
        <lane id=":clusterJ13_J14_J15_J16_33_1" index="0" speed="4.72" length="3.39" shape="-7.44,-3.21 -7.88,-3.45 -9.43,-5.88"/>
    </edge>
    <edge id=":clusterJ13_J14_J15_J16_34" function="internal">
        <lane id=":clusterJ13_J14_J15_J16_34_0" index="0" speed="9.09" length="15.51" shape="-7.02,-2.92 -7.40,-1.53 -10.28,2.33 -14.21,5.11 -18.52,6.14"/>
    </edge>
    <edge id=":clusterJ13_J14_J15_J16_16" function="internal">
        <lane id=":clusterJ13_J14_J15_J16_16_0" index="0" speed="6.61" length="9.28" shape="-18.45,-0.23 -15.95,-0.56 -14.15,-1.62 -13.04,-3.42 -12.63,-5.95"/>
    </edge>
    <edge id=":clusterJ13_J14_J15_J16_17" function="internal">
        <lane id=":clusterJ13_J14_J15_J16_17_0" index="0" speed="13.89" length="20.93" shape="-18.45,-0.23 2.48,-0.12"/>
    </edge>
    <edge id=":clusterJ13_J14_J15_J16_18" function="internal">
        <lane id=":clusterJ13_J14_J15_J16_18_0" index="0" speed="10.08" length="23.26" shape="-18.45,-0.23 -13.06,1.21 -8.21,4.84 -4.73,9.79 -3.46,15.22"/>
    </edge>
    <edge id=":clusterJ13_J14_J15_J16_19" function="internal">
        <lane id=":clusterJ13_J14_J15_J16_19_0" index="0" speed="8.08" length="14.41" shape="-18.48,2.97 -14.59,2.46 -11.79,0.81 -10.07,-1.97 -9.43,-5.88"/>
    </edge>
    <edge id=":clusterJ13_J14_J15_J16_20" function="internal">
        <lane id=":clusterJ13_J14_J15_J16_20_0" index="0" speed="13.89" length="20.97" shape="-18.48,2.97 2.49,3.08"/>
    </edge>
    <edge id=":clusterJ13_J14_J15_J16_21" function="internal">
        <lane id=":clusterJ13_J14_J15_J16_21_0" index="0" speed="9.00" length="18.35" shape="-18.48,2.97 -14.23,4.11 -10.41,6.97 -7.67,10.87 -6.66,15.15"/>
    </edge>
    <edge id=":clusterJ13_J14_J15_J16_22" function="internal">
        <lane id=":clusterJ13_J14_J15_J16_22_0" index="0" speed="4.71" length="6.97" shape="-18.48,2.97 -16.11,4.59 -15.34,6.19 -16.15,7.78 -18.56,9.34"/>
        <lane id=":clusterJ13_J14_J15_J16_22_1" index="1" speed="3.64" length="6.97" shape="-18.48,2.97 -17.30,3.78 -16.92,4.57 -17.32,5.36 -18.52,6.14"/>
    </edge>
    <edge id=":clusterJ13_J14_J15_J16_24" function="internal">
        <lane id=":clusterJ13_J14_J15_J16_24_0" index="0" speed="6.49" length="9.03" shape="-13.06,15.02 -13.37,12.56 -14.38,10.80 -16.11,9.72 -18.56,9.34"/>
    </edge>
    <edge id=":clusterJ13_J14_J15_J16_25" function="internal">
        <lane id=":clusterJ13_J14_J15_J16_25_0" index="0" speed="13.89" length="20.98" shape="-13.06,15.02 -12.63,-5.95"/>
    </edge>
    <edge id=":clusterJ13_J14_J15_J16_26" function="internal">
        <lane id=":clusterJ13_J14_J15_J16_26_0" index="0" speed="10.22" length="5.44" shape="-13.06,15.02 -11.64,9.77"/>
    </edge>
    <edge id=":clusterJ13_J14_J15_J16_27" function="internal">
        <lane id=":clusterJ13_J14_J15_J16_27_0" index="0" speed="5.58" length="6.02" shape="-13.06,15.02 -10.59,11.47 -9.00,10.72"/>
        <lane id=":clusterJ13_J14_J15_J16_27_1" index="1" speed="4.72" length="6.02" shape="-13.06,15.02 -11.42,12.66 -9.80,11.89 -8.66,12.49"/>
    </edge>
    <edge id=":clusterJ13_J14_J15_J16_29" function="internal">
        <lane id=":clusterJ13_J14_J15_J16_29_0" index="0" speed="7.99" length="4.07" shape="-9.87,15.09 -10.34,11.22 -10.42,11.07"/>
    </edge>
    <edge id=":clusterJ13_J14_J15_J16_30" function="internal">
        <lane id=":clusterJ13_J14_J15_J16_30_0" index="0" speed="13.89" length="20.97" shape="-9.87,15.09 -9.43,-5.88"/>
    </edge>
    <edge id=":clusterJ13_J14_J15_J16_31" function="internal">
        <lane id=":clusterJ13_J14_J15_J16_31_0" index="0" speed="9.15" length="3.00" shape="-9.87,15.09 -9.08,12.20"/>
    </edge>
    <edge id=":clusterJ13_J14_J15_J16_35" function="internal">
        <lane id=":clusterJ13_J14_J15_J16_35_0" index="0" speed="10.22" length="17.96" shape="-11.64,9.77 -11.59,9.61 -7.95,4.74 -2.98,1.23 2.48,-0.12"/>
    </edge>
    <edge id=":clusterJ13_J14_J15_J16_36" function="internal">
        <lane id=":clusterJ13_J14_J15_J16_36_0" index="0" speed="5.58" length="7.94" shape="-9.00,10.72 -8.17,10.32 -5.79,11.57 -3.46,15.22"/>
        <lane id=":clusterJ13_J14_J15_J16_36_1" index="0" speed="4.72" length="3.39" shape="-8.66,12.49 -8.21,12.72 -6.66,15.15"/>
    </edge>
    <edge id=":clusterJ13_J14_J15_J16_37" function="internal">
        <lane id=":clusterJ13_J14_J15_J16_37_0" index="0" speed="7.99" length="10.15" shape="-10.42,11.07 -11.94,8.43 -14.67,6.74 -18.52,6.14"/>
    </edge>
    <edge id=":clusterJ13_J14_J15_J16_38" function="internal">
        <lane id=":clusterJ13_J14_J15_J16_38_0" index="0" speed="9.15" length="15.58" shape="-9.08,12.20 -8.69,10.79 -5.80,6.93 -1.85,4.15 2.49,3.08"/>
    </edge>

    <edge id="-E0" from="J1" to="clusterJ13_J14_J15_J16" priority="-1" type="traffic_light" shape="63.10,5.30 -6.51,4.69">
        <lane id="-E0_0" index="0" speed="13.89" length="60.58" shape="63.06,10.10 2.49,9.57"/>
        <lane id="-E0_1" index="1" speed="13.89" length="60.58" shape="63.09,6.90 2.49,6.37"/>
    </edge>
    <edge id="-E0.59" from="clusterJ13_J14_J15_J16" to="J0" priority="-1" type="traffic_light" shape="-6.51,4.69 -67.75,3.94">
        <lane id="-E0.59_0" index="0" speed="13.89" length="49.25" shape="-18.56,9.34 -67.81,8.74"/>
        <lane id="-E0.59_1" index="1" speed="13.89" length="49.25" shape="-18.52,6.14 -67.77,5.54"/>
    </edge>
    <edge id="-E1" from="J3" to="clusterJ13_J14_J15_J16" priority="-1" type="traffic_light" shape="-6.83,-54.58 -7.80,-7.51">
        <lane id="-E1_0" index="0" speed="13.89" length="48.74" shape="-2.03,-54.48 -3.04,-5.75"/>
        <lane id="-E1_1" index="1" speed="13.89" length="48.74" shape="-5.23,-54.55 -6.23,-5.82"/>
    </edge>
    <edge id="-E1.47" from="clusterJ13_J14_J15_J16" to="J2" priority="-1" type="traffic_light" shape="-7.80,-7.51 -8.87,44.78">
        <lane id="-E1.47_0" index="0" speed="13.89" length="29.66" shape="-3.46,15.22 -4.07,44.88"/>
        <lane id="-E1.47_1" index="1" speed="13.89" length="29.66" shape="-6.66,15.15 -7.27,44.81"/>
    </edge>
    <edge id="E0" from="J0" to="clusterJ13_J14_J15_J16" priority="-1" type="traffic_light" shape="-67.75,3.94 -8.93,4.69">
        <lane id="E0_0" index="0" speed="13.89" length="49.25" shape="-67.69,-0.86 -18.45,-0.23"/>
        <lane id="E0_1" index="1" speed="13.89" length="49.25" shape="-67.73,2.34 -18.48,2.97"/>
    </edge>
    <edge id="E0.46" from="clusterJ13_J14_J15_J16" to="J1" priority="-1" type="traffic_light" shape="-8.93,4.69 61.90,4.62">
        <lane id="E0.46_0" index="0" speed="13.89" length="60.60" shape="2.48,-0.12 63.09,-0.18"/>
        <lane id="E0.46_1" index="1" speed="13.89" length="60.60" shape="2.49,3.08 63.08,3.02"/>
    </edge>
    <edge id="E1" from="J2" to="clusterJ13_J14_J15_J16" priority="-1" type="traffic_light" shape="-8.87,44.78 -8.27,15.34">
        <lane id="E1_0" index="0" speed="13.89" length="29.66" shape="-13.67,44.68 -13.06,15.02"/>
        <lane id="E1_1" index="1" speed="13.89" length="29.66" shape="-10.47,44.75 -9.87,15.09"/>
    </edge>
    <edge id="E1.29" from="clusterJ13_J14_J15_J16" to="J3" priority="-1" type="traffic_light" shape="-8.27,15.34 -6.83,-54.58">
        <lane id="E1.29_0" index="0" speed="13.89" length="48.74" shape="-12.63,-5.95 -11.63,-54.68"/>
        <lane id="E1.29_1" index="1" speed="13.89" length="48.74" shape="-9.43,-5.88 -8.43,-54.61"/>
    </edge>

    <junction id="J0" type="priority" x="-67.75" y="3.94" incLanes="-E0.59_0 -E0.59_1" intLanes=":J0_0_0 :J0_0_1" shape="-67.75,3.94 -67.67,-2.46 -67.83,10.34">
        <request index="0" response="00" foes="00" cont="0"/>
        <request index="1" response="00" foes="00" cont="0"/>
    </junction>
    <junction id="J1" type="priority" x="63.10" y="5.30" incLanes="E0.46_0 E0.46_1" intLanes=":J1_0_0 :J1_0_1" shape="63.10,5.30 63.04,11.70 63.09,-1.78">
        <request index="0" response="00" foes="00" cont="0"/>
        <request index="1" response="00" foes="00" cont="0"/>
    </junction>
    <junction id="J2" type="priority" x="-8.87" y="44.78" incLanes="-E1.47_0 -E1.47_1" intLanes=":J2_0_0 :J2_0_1" shape="-8.87,44.78 -2.47,44.91 -8.87,44.78">
        <request index="0" response="00" foes="00" cont="0"/>
        <request index="1" response="00" foes="00" cont="0"/>
    </junction>
    <junction id="J3" type="priority" x="-6.83" y="-54.58" incLanes="E1.29_0 E1.29_1" intLanes=":J3_0_0 :J3_0_1" shape="-6.83,-54.58 -13.23,-54.71 -6.83,-54.58">
        <request index="0" response="00" foes="00" cont="0"/>
        <request index="1" response="00" foes="00" cont="0"/>
    </junction>
    <junction id="clusterJ13_J14_J15_J16" type="priority" x="-7.88" y="4.30" incLanes="-E0_0 -E0_1 -E1_0 -E1_1 E0_0 E0_1 E1_0 E1_1" intLanes=":clusterJ13_J14_J15_J16_0_0 :clusterJ13_J14_J15_J16_0_1 :clusterJ13_J14_J15_J16_2_0 :clusterJ13_J14_J15_J16_3_0 :clusterJ13_J14_J15_J16_4_0 :clusterJ13_J14_J15_J16_4_1 :clusterJ13_J14_J15_J16_6_0 :clusterJ13_J14_J15_J16_7_0 :clusterJ13_J14_J15_J16_8_0 :clusterJ13_J14_J15_J16_8_1 :clusterJ13_J14_J15_J16_10_0 :clusterJ13_J14_J15_J16_32_0 :clusterJ13_J14_J15_J16_33_0 :clusterJ13_J14_J15_J16_33_1 :clusterJ13_J14_J15_J16_14_0 :clusterJ13_J14_J15_J16_34_0 :clusterJ13_J14_J15_J16_16_0 :clusterJ13_J14_J15_J16_17_0 :clusterJ13_J14_J15_J16_18_0 :clusterJ13_J14_J15_J16_19_0 :clusterJ13_J14_J15_J16_20_0 :clusterJ13_J14_J15_J16_21_0 :clusterJ13_J14_J15_J16_22_0 :clusterJ13_J14_J15_J16_22_1 :clusterJ13_J14_J15_J16_24_0 :clusterJ13_J14_J15_J16_25_0 :clusterJ13_J14_J15_J16_35_0 :clusterJ13_J14_J15_J16_36_0 :clusterJ13_J14_J15_J16_36_1 :clusterJ13_J14_J15_J16_37_0 :clusterJ13_J14_J15_J16_30_0 :clusterJ13_J14_J15_J16_38_0" shape="2.49,11.17 2.48,-1.72 0.27,-2.16 -0.50,-2.72 -1.04,-3.50 -1.35,-4.49 -1.44,-5.72 -14.23,-5.98 -14.74,-3.65 -15.32,-2.84 -16.13,-2.27 -17.17,-1.93 -18.43,-1.83 -18.58,10.94 -16.37,11.41 -15.60,11.98 -15.06,12.76 -14.75,13.77 -14.66,14.99 -1.86,15.25 -1.34,12.97 -0.73,12.17 0.11,11.61 1.19,11.27">
        <request index="0"  response="00000000000000000100010000000000" foes="00011000001001000100010000000000" cont="0"/>
        <request index="1"  response="00000000000000000100010000000000" foes="00011000001001000100010000000000" cont="0"/>
        <request index="2"  response="11100111000000001100110000000000" foes="11100111111001001100110000000000" cont="0"/>
        <request index="3"  response="11000110000111111100110001000000" foes="11000110000111111111110001000000" cont="0"/>
        <request index="4"  response="10000100000100100000001100000000" foes="10000100000100100000001100000000" cont="0"/>
        <request index="5"  response="10000100000100100000001100000000" foes="10000100000100100000001100000000" cont="0"/>
        <request index="6"  response="11100111000000001100110000000000" foes="11100111111001001100110000001000" cont="0"/>
        <request index="7"  response="11000110000110111100110000000000" foes="11000110000110111111110000000000" cont="0"/>
        <request index="8"  response="00000000000000000000000000000000" foes="10000100000100100000000000110000" cont="0"/>
        <request index="9"  response="00000000000000000000000000000000" foes="10000100000100100000000000110000" cont="0"/>
        <request index="10" response="00000000000000000000000000000000" foes="10011100001101100000000011001111" cont="0"/>
        <request index="11" response="01100111000000000100000000000000" foes="01100111111101100100000011001100" cont="1"/>
        <request index="12" response="01000010000010010000000010001000" foes="01000010000010010000000010001000" cont="1"/>
        <request index="13" response="01000010000010010000000010001000" foes="01000010000010010000000010001000" cont="1"/>
        <request index="14" response="00000000000000000000000000000000" foes="10011100001101100000100011001111" cont="0"/>
        <request index="15" response="01100011000000000000000000000000" foes="01100011111101100000000011001100" cont="1"/>
        <request index="16" response="01000010000000000000000000000000" foes="01000010000000000011000010001000" cont="0"/>
        <request index="17" response="11000110000000001100111100000000" foes="11000110000010001100111110111000" cont="0"/>
        <request index="18" response="11000110000100001100110001000111" foes="11011110000110001100110001001111" cont="0"/>
        <request index="19" response="01000010000001100000000000000000" foes="01000010000001100011000010001000" cont="0"/>
        <request index="20" response="11000110000000001100111100000000" foes="11000110000001001100111110111000" cont="0"/>
        <request index="21" response="11000110000000001100110001000111" foes="11011110000000001100110001000111" cont="0"/>
        <request index="22" response="00100001000000001000100001000100" foes="00100001000000001000100001000100" cont="0"/>
        <request index="23" response="00100001000000001000100001000100" foes="00100001000000001000100001000100" cont="0"/>
        <request index="24" response="00000000000000000000000000000000" foes="00000000110000001000100001000100" cont="0"/>
        <request index="25" response="00000000000000000000000000000000" foes="00100000001111111011100011001100" cont="0"/>
        <request index="26" response="01000000000000000100011100000000" foes="01100000001101100100111111111100" cont="1"/>
        <request index="27" response="00000000001001000100010000000011" foes="00000000001001000100010000000011" cont="1"/>
        <request index="28" response="00000000001001000100010000000011" foes="00000000001001000100010000000011" cont="1"/>
        <request index="29" response="00000110000000000000000000000000" foes="00000110110000001000100001000100" cont="1"/>
        <request index="30" response="00000000000000000000000000000000" foes="00000100001111111011100011001100" cont="0"/>
        <request index="31" response="00000000000000000100011100000000" foes="00000000001101100100011111111100" cont="1"/>
    </junction>

    <junction id=":clusterJ13_J14_J15_J16_32_0" type="internal" x="-4.46" y="-0.50" incLanes=":clusterJ13_J14_J15_J16_11_0 :clusterJ13_J14_J15_J16_26_0 E1_0 E1_1" intLanes=":clusterJ13_J14_J15_J16_35_0 :clusterJ13_J14_J15_J16_2_0 :clusterJ13_J14_J15_J16_3_0 :clusterJ13_J14_J15_J16_6_0 :clusterJ13_J14_J15_J16_7_0 :clusterJ13_J14_J15_J16_14_0 :clusterJ13_J14_J15_J16_17_0 :clusterJ13_J14_J15_J16_18_0 :clusterJ13_J14_J15_J16_20_0 :clusterJ13_J14_J15_J16_21_0 :clusterJ13_J14_J15_J16_22_0 :clusterJ13_J14_J15_J16_22_1 :clusterJ13_J14_J15_J16_24_0 :clusterJ13_J14_J15_J16_25_0 :clusterJ13_J14_J15_J16_26_0 :clusterJ13_J14_J15_J16_29_0 :clusterJ13_J14_J15_J16_30_0"/>
    <junction id=":clusterJ13_J14_J15_J16_33_0" type="internal" x="-7.09" y="-1.45" incLanes=":clusterJ13_J14_J15_J16_12_0 -E0_0 -E0_1 E0_0 E0_1 E1_0 E1_1" intLanes=":clusterJ13_J14_J15_J16_3_0 :clusterJ13_J14_J15_J16_7_0 :clusterJ13_J14_J15_J16_16_0 :clusterJ13_J14_J15_J16_19_0 :clusterJ13_J14_J15_J16_25_0 :clusterJ13_J14_J15_J16_30_0"/>
    <junction id=":clusterJ13_J14_J15_J16_33_1" type="internal" x="-7.44" y="-3.21" incLanes=":clusterJ13_J14_J15_J16_12_1 -E0_0 -E0_1 E0_0 E0_1 E1_0 E1_1" intLanes=":clusterJ13_J14_J15_J16_3_0 :clusterJ13_J14_J15_J16_7_0 :clusterJ13_J14_J15_J16_16_0 :clusterJ13_J14_J15_J16_19_0 :clusterJ13_J14_J15_J16_25_0 :clusterJ13_J14_J15_J16_30_0"/>
    <junction id=":clusterJ13_J14_J15_J16_34_0" type="internal" x="-7.02" y="-2.92" incLanes=":clusterJ13_J14_J15_J16_15_0 E1_0 E1_1" intLanes=":clusterJ13_J14_J15_J16_2_0 :clusterJ13_J14_J15_J16_3_0 :clusterJ13_J14_J15_J16_6_0 :clusterJ13_J14_J15_J16_7_0 :clusterJ13_J14_J15_J16_17_0 :clusterJ13_J14_J15_J16_18_0 :clusterJ13_J14_J15_J16_20_0 :clusterJ13_J14_J15_J16_21_0 :clusterJ13_J14_J15_J16_22_0 :clusterJ13_J14_J15_J16_22_1 :clusterJ13_J14_J15_J16_24_0 :clusterJ13_J14_J15_J16_25_0 :clusterJ13_J14_J15_J16_29_0 :clusterJ13_J14_J15_J16_30_0"/>
    <junction id=":clusterJ13_J14_J15_J16_35_0" type="internal" x="-11.64" y="9.77" incLanes=":clusterJ13_J14_J15_J16_26_0 -E1_0 -E1_1" intLanes=":clusterJ13_J14_J15_J16_2_0 :clusterJ13_J14_J15_J16_3_0 :clusterJ13_J14_J15_J16_4_0 :clusterJ13_J14_J15_J16_4_1 :clusterJ13_J14_J15_J16_6_0 :clusterJ13_J14_J15_J16_7_0 :clusterJ13_J14_J15_J16_8_0 :clusterJ13_J14_J15_J16_8_1 :clusterJ13_J14_J15_J16_10_0 :clusterJ13_J14_J15_J16_11_0 :clusterJ13_J14_J15_J16_14_0 :clusterJ13_J14_J15_J16_17_0 :clusterJ13_J14_J15_J16_18_0 :clusterJ13_J14_J15_J16_20_0 :clusterJ13_J14_J15_J16_21_0 :clusterJ13_J14_J15_J16_30_0"/>
    <junction id=":clusterJ13_J14_J15_J16_36_0" type="internal" x="-9.00" y="10.72" incLanes=":clusterJ13_J14_J15_J16_27_0 -E0_0 -E1_0 -E1_1 E0_0 E0_1" intLanes=":clusterJ13_J14_J15_J16_0_0 :clusterJ13_J14_J15_J16_0_1 :clusterJ13_J14_J15_J16_10_0 :clusterJ13_J14_J15_J16_14_0 :clusterJ13_J14_J15_J16_18_0 :clusterJ13_J14_J15_J16_21_0"/>
    <junction id=":clusterJ13_J14_J15_J16_36_1" type="internal" x="-8.66" y="12.49" incLanes=":clusterJ13_J14_J15_J16_27_1 -E0_0 -E1_0 -E1_1 E0_0 E0_1" intLanes=":clusterJ13_J14_J15_J16_0_0 :clusterJ13_J14_J15_J16_0_1 :clusterJ13_J14_J15_J16_10_0 :clusterJ13_J14_J15_J16_14_0 :clusterJ13_J14_J15_J16_18_0 :clusterJ13_J14_J15_J16_21_0"/>
    <junction id=":clusterJ13_J14_J15_J16_37_0" type="internal" x="-10.42" y="11.07" incLanes=":clusterJ13_J14_J15_J16_29_0 E1_0" intLanes=":clusterJ13_J14_J15_J16_2_0 :clusterJ13_J14_J15_J16_6_0 :clusterJ13_J14_J15_J16_11_0 :clusterJ13_J14_J15_J16_15_0 :clusterJ13_J14_J15_J16_22_0 :clusterJ13_J14_J15_J16_22_1 :clusterJ13_J14_J15_J16_25_0 :clusterJ13_J14_J15_J16_26_0"/>
    <junction id=":clusterJ13_J14_J15_J16_38_0" type="internal" x="-9.08" y="12.20" incLanes=":clusterJ13_J14_J15_J16_31_0 -E1_0 -E1_1" intLanes=":clusterJ13_J14_J15_J16_2_0 :clusterJ13_J14_J15_J16_3_0 :clusterJ13_J14_J15_J16_4_0 :clusterJ13_J14_J15_J16_4_1 :clusterJ13_J14_J15_J16_6_0 :clusterJ13_J14_J15_J16_7_0 :clusterJ13_J14_J15_J16_8_0 :clusterJ13_J14_J15_J16_8_1 :clusterJ13_J14_J15_J16_10_0 :clusterJ13_J14_J15_J16_14_0 :clusterJ13_J14_J15_J16_17_0 :clusterJ13_J14_J15_J16_18_0 :clusterJ13_J14_J15_J16_20_0 :clusterJ13_J14_J15_J16_21_0"/>

    <connection from="-E0" to="-E1.47" fromLane="0" toLane="0" via=":clusterJ13_J14_J15_J16_0_0" dir="r" state="m"/>
    <connection from="-E0" to="-E1.47" fromLane="0" toLane="1" via=":clusterJ13_J14_J15_J16_0_1" dir="r" state="m"/>
    <connection from="-E0" to="-E0.59" fromLane="0" toLane="0" via=":clusterJ13_J14_J15_J16_2_0" dir="s" state="m"/>
    <connection from="-E0" to="E1.29" fromLane="0" toLane="0" via=":clusterJ13_J14_J15_J16_3_0" dir="l" state="m"/>
    <connection from="-E0" to="E0.46" fromLane="0" toLane="0" via=":clusterJ13_J14_J15_J16_4_0" dir="t" state="m"/>
    <connection from="-E0" to="E0.46" fromLane="0" toLane="1" via=":clusterJ13_J14_J15_J16_4_1" dir="t" state="m"/>
    <connection from="-E0" to="-E0.59" fromLane="1" toLane="1" via=":clusterJ13_J14_J15_J16_6_0" dir="s" state="m"/>
    <connection from="-E0" to="E1.29" fromLane="1" toLane="1" via=":clusterJ13_J14_J15_J16_7_0" dir="l" state="m"/>
    <connection from="-E0.59" to="E0" fromLane="0" toLane="0" via=":J0_0_0" dir="t" state="M"/>
    <connection from="-E0.59" to="E0" fromLane="0" toLane="1" via=":J0_0_1" dir="t" state="M"/>
    <connection from="-E1" to="E0.46" fromLane="0" toLane="0" via=":clusterJ13_J14_J15_J16_8_0" dir="r" state="M"/>
    <connection from="-E1" to="E0.46" fromLane="0" toLane="1" via=":clusterJ13_J14_J15_J16_8_1" dir="r" state="M"/>
    <connection from="-E1" to="-E1.47" fromLane="0" toLane="0" via=":clusterJ13_J14_J15_J16_10_0" dir="s" state="M"/>
    <connection from="-E1" to="-E0.59" fromLane="0" toLane="0" via=":clusterJ13_J14_J15_J16_11_0" dir="l" state="m"/>
    <connection from="-E1" to="E1.29" fromLane="0" toLane="0" via=":clusterJ13_J14_J15_J16_12_0" dir="t" state="m"/>
    <connection from="-E1" to="E1.29" fromLane="0" toLane="1" via=":clusterJ13_J14_J15_J16_12_1" dir="t" state="m"/>
    <connection from="-E1" to="-E1.47" fromLane="1" toLane="1" via=":clusterJ13_J14_J15_J16_14_0" dir="s" state="M"/>
    <connection from="-E1" to="-E0.59" fromLane="1" toLane="1" via=":clusterJ13_J14_J15_J16_15_0" dir="l" state="m"/>
    <connection from="-E1.47" to="E1" fromLane="0" toLane="0" via=":J2_0_0" dir="t" state="M"/>
    <connection from="-E1.47" to="E1" fromLane="0" toLane="1" via=":J2_0_1" dir="t" state="M"/>
    <connection from="E0" to="E1.29" fromLane="0" toLane="0" via=":clusterJ13_J14_J15_J16_16_0" dir="r" state="m"/>
    <connection from="E0" to="E0.46" fromLane="0" toLane="0" via=":clusterJ13_J14_J15_J16_17_0" dir="s" state="m"/>
    <connection from="E0" to="-E1.47" fromLane="0" toLane="0" via=":clusterJ13_J14_J15_J16_18_0" dir="l" state="m"/>
    <connection from="E0" to="E1.29" fromLane="1" toLane="1" via=":clusterJ13_J14_J15_J16_19_0" dir="r" state="m"/>
    <connection from="E0" to="E0.46" fromLane="1" toLane="1" via=":clusterJ13_J14_J15_J16_20_0" dir="s" state="m"/>
    <connection from="E0" to="-E1.47" fromLane="1" toLane="1" via=":clusterJ13_J14_J15_J16_21_0" dir="l" state="m"/>
    <connection from="E0" to="-E0.59" fromLane="1" toLane="0" via=":clusterJ13_J14_J15_J16_22_0" dir="t" state="m"/>
    <connection from="E0" to="-E0.59" fromLane="1" toLane="1" via=":clusterJ13_J14_J15_J16_22_1" dir="t" state="m"/>
    <connection from="E0.46" to="-E0" fromLane="1" toLane="0" via=":J1_0_0" dir="t" state="M"/>
    <connection from="E0.46" to="-E0" fromLane="1" toLane="1" via=":J1_0_1" dir="t" state="M"/>
    <connection from="E1" to="-E0.59" fromLane="0" toLane="0" via=":clusterJ13_J14_J15_J16_24_0" dir="r" state="M"/>
    <connection from="E1" to="E1.29" fromLane="0" toLane="0" via=":clusterJ13_J14_J15_J16_25_0" dir="s" state="M"/>
    <connection from="E1" to="E0.46" fromLane="0" toLane="0" via=":clusterJ13_J14_J15_J16_26_0" dir="l" state="m"/>
    <connection from="E1" to="-E1.47" fromLane="0" toLane="0" via=":clusterJ13_J14_J15_J16_27_0" dir="t" state="m"/>
    <connection from="E1" to="-E1.47" fromLane="0" toLane="1" via=":clusterJ13_J14_J15_J16_27_1" dir="t" state="m"/>
    <connection from="E1" to="-E0.59" fromLane="1" toLane="1" via=":clusterJ13_J14_J15_J16_29_0" dir="r" state="m"/>
    <connection from="E1" to="E1.29" fromLane="1" toLane="1" via=":clusterJ13_J14_J15_J16_30_0" dir="s" state="M"/>
    <connection from="E1" to="E0.46" fromLane="1" toLane="1" via=":clusterJ13_J14_J15_J16_31_0" dir="l" state="m"/>
    <connection from="E1.29" to="-E1" fromLane="0" toLane="0" via=":J3_0_0" dir="t" state="M"/>
    <connection from="E1.29" to="-E1" fromLane="0" toLane="1" via=":J3_0_1" dir="t" state="M"/>

    <connection from=":J0_0" to="E0" fromLane="0" toLane="0" dir="t" state="M"/>
    <connection from=":J0_0" to="E0" fromLane="1" toLane="1" dir="t" state="M"/>
    <connection from=":J1_0" to="-E0" fromLane="0" toLane="0" dir="t" state="M"/>
    <connection from=":J1_0" to="-E0" fromLane="1" toLane="1" dir="t" state="M"/>
    <connection from=":J2_0" to="E1" fromLane="0" toLane="0" dir="t" state="M"/>
    <connection from=":J2_0" to="E1" fromLane="1" toLane="1" dir="t" state="M"/>
    <connection from=":J3_0" to="-E1" fromLane="0" toLane="0" dir="t" state="M"/>
    <connection from=":J3_0" to="-E1" fromLane="1" toLane="1" dir="t" state="M"/>
    <connection from=":clusterJ13_J14_J15_J16_0" to="-E1.47" fromLane="0" toLane="0" dir="r" state="M"/>
    <connection from=":clusterJ13_J14_J15_J16_0" to="-E1.47" fromLane="1" toLane="1" dir="r" state="M"/>
    <connection from=":clusterJ13_J14_J15_J16_2" to="-E0.59" fromLane="0" toLane="0" dir="s" state="M"/>
    <connection from=":clusterJ13_J14_J15_J16_3" to="E1.29" fromLane="0" toLane="0" dir="l" state="M"/>