<?xml version="1.0" encoding="UTF-8"?>

<!-- generated on 2026-03-31T23:20:09.774873+05:30 by Eclipse SUMO netedit 1.26.0
-->

<routes xmlns:xsi="http://www.w3.org/2001/XMLSchema-instance" xsi:noNamespaceSchemaLocation="http://sumo.dlr.de/xsd/routes_file.xsd">
    <!-- Vehicles, persons and containers (sorted by depart) -->
    <trip id="t_0" depart="0.00" from="E0" to="E0"/>
    <trip id="t_1" depart="0.00" from="-E0" to="-E0"/>
    <trip id="t_2" depart="0.00" from="E1" to="E1"/>
    <trip id="t_3" depart="0.00" from="-E1" to="-E1"/>
    <flow id="f_0" begin="0.00" number="500" period="7.20000000000000017764" from="-E0" to="-E0"/>
    <flow id="f_1" begin="0.00" number="500" period="7.20000000000000017764" from="-E0" to="-E0"/>
    <flow id="f_2" begin="0.00" number="500" period="7.20000000000000017764" from="E0" to="E0"/>
    <flow id="f_3" begin="0.00" number="500" period="7.20000000000000017764" from="E1" to="E1"/>
    <flow id="f_4" begin="0.00" number="500" period="7.20000000000000017764" from="-E1" to="-E1"/>
    <flow id="f_5" begin="0.00" number="500" period="7.20000000000000017764" from="E1" to="E1"/>
    <flow id="f_6" begin="0.00" number="500" period="7.20000000000000017764" from="E1" to="E1"/>
</routes>
