<?xml version="1.0" encoding="UTF-8"?>

<!-- generated on 2026-04-08T16:52:20.900970+05:30 by Eclipse SUMO duarouter 1.26.0
<duarouterConfiguration xmlns:xsi="http://www.w3.org/2001/XMLSchema-instance" xsi:noNamespaceSchemaLocation="http://sumo.dlr.de/xsd/duarouterConfiguration.xsd">

    <input>
        <net-file value="map.net.xml"/>
        <route-files value="trips.trips.xml"/>
    </input>

    <output>
        <output-file value="routes.rou.xml"/>
    </output>

</duarouterConfiguration>
-->

<routes xmlns:xsi="http://www.w3.org/2001/XMLSchema-instance" xsi:noNamespaceSchemaLocation="http://sumo.dlr.de/xsd/routes_file.xsd">
    <vehicle id="0" depart="0.00">
        <route edges="1445926303#3 1445926304 798234860#1 -469966399#6 -469966399#5 -469966399#4 -469966399#3 -469966399#2 475071113#0 1445927130 -469966399#0 -1018228073#0"/>
    </vehicle>
    <vehicle id="1" depart="120.00">
        <route edges="-1445927128 475071113#5 475071113#6 -475071113#2 -1445927127 469966399#3 469966399#4 469966399#5 -469966399#5"/>
    </vehicle>
    <vehicle id="2" depart="240.00">
        <route edges="1445927129 475071113#4 1445927128"/>
    </vehicle>
    <vehicle id="3" depart="360.00">
        <route edges="475071113#5 475071113#6 -475071113#2 -1445927127 469966399#3 695769602 469966400#1 695769603 469966400#3 469966400#4 469966399#10 1445926303#0 1445926305#0 1445926305#1 -1445926305#1"/>
    </vehicle>
    <vehicle id="4" depart="480.00">
        <route edges="-469966399#9 -469966399#8 -469966399#7 -469966399#6 -469966399#5 -469966399#4 -469966399#3 -469966399#2 475071113#0 1445927130 -469966399#0 -1018228073#0"/>
    </vehicle>
    <vehicle id="5" depart="600.00">
        <route edges="-1445926308#0 1445926305#2 1445926303#3 1445926303#4"/>
    </vehicle>
    <vehicle id="6" depart="720.00">
        <route edges="-1018228073#1 469966399#0 469966399#1 469966399#2 469966399#3 695769602 469966400#1 695769603 469966400#3 695769605 -469966399#12"/>
    </vehicle>
    <vehicle id="7" depart="840.00">
        <route edges="1445926305#0 1445926305#1 1445926305#2 1445926303#3 1445926303#4"/>
    </vehicle>
    <vehicle id="8" depart="960.00">
        <route edges="-1445926308#0 -1445926305#1 -1445926305#0 -1445926303#0 469966399#11 -527232518#1 -527232518#0 -1445926306#1 1445926307"/>
    </vehicle>
    <vehicle id="9" depart="1080.00">
        <route edges="469966399#4 -469966399#4 -469966399#3 -469966399#2 475071113#0 1445927130 -469966399#0 -1018228073#0"/>
    </vehicle>
    <vehicle id="10" depart="1200.00">
        <route edges="469966399#4 -469966399#4 -469966399#3 1445927127 475071113#2 -475071113#6 -475071113#5 1445927128"/>
    </vehicle>
    <vehicle id="11" depart="1320.00">
        <route edges="-469966399#14 -469966399#13 -469966399#12 -469966399#11 -469966399#10 -469966399#9 -469966399#8 -469966399#7 -469966399#6 -469966399#5 -469966399#4 -469966399#3 1445927127 475071113#2 -475071113#6 -475071113#5 -475071113#4 -1445927129"/>
    </vehicle>
    <vehicle id="12" depart="1440.00">
        <route edges="798234860#0 -798234860#0"/>
    </vehicle>
    <vehicle id="13" depart="1560.00">
        <route edges="-1445926300 475071113#6 -475071113#2 -1445927127 469966399#3 695769602 469966400#1 695769603 469966400#3 469966400#4 469966399#10 469966399#11 -527232518#1 -527232518#0 -1445926306#1 -1445926306#0"/>
    </vehicle>
    <vehicle id="14" depart="1680.00">
        <route edges="469966400#1 695769603 469966400#3 469966400#4 469966399#10 1445926303#0 1445926305#0 1445926305#1 1445926309"/>
    </vehicle>
    <vehicle id="15" depart="1800.00">
        <route edges="469966399#4 469966399#5 695769583 695769604 1462849220"/>
    </vehicle>
    <vehicle id="16" depart="1920.00">
        <route edges="-695769583 695769583"/>
    </vehicle>
    <vehicle id="17" depart="2040.00">
        <route edges="-469966399#14 -1445926308#1 -1445926309 1445926305#2 1445926303#3 1445926303#4"/>
    </vehicle>
    <vehicle id="18" depart="2160.00">
        <route edges="469966399#8 469966399#9 469966399#10 1445926303#0 1445926305#0 1445926311"/>
    </vehicle>
    <vehicle id="19" depart="2280.00">
        <route edges="469966400#4 469966399#10 469966399#11 -527232518#1 1445926306#0"/>
    </vehicle>
    <vehicle id="20" depart="2400.00">
        <route edges="1445927129 475071113#4 475071113#5 475071113#6 -475071113#2 -475071113#1 1445927130 -469966399#0 -1018228073#0"/>
    </vehicle>
    <vehicle id="21" depart="2520.00">
        <route edges="-1445926308#1 -1445926309 -1445926305#1 -1445926305#0 -1445926303#0 -469966399#10 -469966399#9 -469966399#8 -469966399#7 -469966399#6 -469966399#5 -469966399#4 -469966399#3 1445927127 475071113#2 -475071113#6 -475071113#5 -475071113#4 -475071113#3"/>
    </vehicle>
    <vehicle id="22" depart="2640.00">
        <route edges="-1445926300 475071113#6 -475071113#2 -1445927127 469966399#3 469966399#4 469966399#5 695769583 695769604 -469966399#8 -469966399#7"/>
    </vehicle>
    <vehicle id="23" depart="2760.00">
        <route edges="-1445926300 475071113#6 -475071113#2 -475071113#1 -475071113#0"/>
    </vehicle>
    <vehicle id="24" depart="2880.00">
        <route edges="1445926303#2 1445926303#3 1445926304 -798234860#0"/>
    </vehicle>
    <vehicle id="25" depart="3000.00">
        <route edges="-469966399#14 -469966399#13 -469966399#12 -469966399#11 -469966399#10 -469966399#9 -469966399#8 -469966399#7 -469966399#6 -469966399#5 -469966399#4 -469966399#3 -469966399#2"/>
    </vehicle>
    <vehicle id="26" depart="3120.00">
        <route edges="-1445927128 475071113#5 475071113#6 -475071113#2 475071113#2"/>
    </vehicle>
    <vehicle id="27" depart="3240.00">
        <route edges="1445926305#0 1445926311"/>
    </vehicle>
    <vehicle id="28" depart="3360.00">
        <route edges="-1445926303#4 -1445926303#3 -1445926303#2 -1445926303#1 -1445926303#0 -469966399#10 -469966399#9 1462849220"/>
    </vehicle>
    <vehicle id="29" depart="3480.00">
        <route edges="-1445926303#4 1445926304 798234860#1 -469966399#6 -469966399#5 -469966399#4 -469966399#3 -469966399#2 475071113#0 1445927130 -469966399#0 1018228073#1"/>
    </vehicle>
</routes>
