<configuration>
    <input>
        <net-file value="map.net.xml"/>
        
        <route-files value="routes.rou.alt.xml"/>
    </input>
    <time>
        <begin value="0"/>
        <end value="1000"/>
    </time>
</configuration>