<?xml version="1.0" encoding="UTF-8"?>

<!-- generated on 2026-04-08 16:52:07.819784 by Eclipse SUMO randomTrips.py v1_26_0+0000-fa7df22d7f1
<configuration>
    <net-file value="map.net.xml"/>
    <fringe-factor value="10"/>
    <period value="120.0"/>
</configuration>
-->

<routes xmlns:xsi="http://www.w3.org/2001/XMLSchema-instance" xsi:noNamespaceSchemaLocation="http://sumo.dlr.de/xsd/routes_file.xsd">
    <trip id="0" depart="0.00" from="1445926303#3" to="-1018228073#0"/>
    <trip id="1" depart="120.00" from="-1445927128" to="-469966399#5"/>
    <trip id="2" depart="240.00" from="1445927129" to="1445927128"/>
    <trip id="3" depart="360.00" from="475071113#5" to="-1445926305#1"/>
    <trip id="4" depart="480.00" from="-469966399#9" to="-1018228073#0"/>
    <trip id="5" depart="600.00" from="-1445926308#0" to="1445926303#4"/>
    <trip id="6" depart="720.00" from="-1018228073#1" to="-469966399#12"/>
    <trip id="7" depart="840.00" from="1445926305#0" to="1445926303#4"/>
    <trip id="8" depart="960.00" from="-1445926308#0" to="1445926307"/>
    <trip id="9" depart="1080.00" from="469966399#4" to="-1018228073#0"/>
    <trip id="10" depart="1200.00" from="469966399#4" to="1445927128"/>
    <trip id="11" depart="1320.00" from="-469966399#14" to="-1445927129"/>
    <trip id="12" depart="1440.00" from="798234860#0" to="-798234860#0"/>
    <trip id="13" depart="1560.00" from="-1445926300" to="-1445926306#0"/>
    <trip id="14" depart="1680.00" from="469966400#1" to="1445926309"/>
    <trip id="15" depart="1800.00" from="469966399#4" to="1462849220"/>
    <trip id="16" depart="1920.00" from="-695769583" to="695769583"/>
    <trip id="17" depart="2040.00" from="-469966399#14" to="1445926303#4"/>
    <trip id="18" depart="2160.00" from="469966399#8" to="1445926311"/>
    <trip id="19" depart="2280.00" from="469966400#4" to="1445926306#0"/>
    <trip id="20" depart="2400.00" from="1445927129" to="-1018228073#0"/>
    <trip id="21" depart="2520.00" from="-1445926308#1" to="-475071113#3"/>
    <trip id="22" depart="2640.00" from="-1445926300" to="-469966399#7"/>
    <trip id="23" depart="2760.00" from="-1445926300" to="-475071113#0"/>
    <trip id="24" depart="2880.00" from="1445926303#2" to="-798234860#0"/>
    <trip id="25" depart="3000.00" from="-469966399#14" to="-469966399#2"/>
    <trip id="26" depart="3120.00" from="-1445927128" to="475071113#2"/>
    <trip id="27" depart="3240.00" from="1445926305#0" to="1445926311"/>
    <trip id="28" depart="3360.00" from="-1445926303#4" to="1462849220"/>
    <trip id="29" depart="3480.00" from="-1445926303#4" to="1018228073#1"/>
</routes>
