<?xml version="1.0" encoding="UTF-8"?>

<!-- generated on 2026-04-02T00:58:23.852615+05:30 by Eclipse SUMO netedit 1.26.0
<neteditConfiguration xmlns:xsi="http://www.w3.org/2001/XMLSchema-instance" xsi:noNamespaceSchemaLocation="http://sumo.dlr.de/xsd/neteditConfiguration.xsd">

    <input>
        <sumo-net-file value="map.net.xml"/>
    </input>

    <output>
        <output-file value="map.net.xml"/>
    </output>

    <processing>
        <geometry.min-radius.fix.railways value="false"/>
        <geometry.avoid-overlap value="false"/>
        <geometry.max-grade.fix value="false"/>
        <offset.disable-normalization value="true"/>
        <lefthand value="0"/>
    </processing>

    <junctions>
        <no-turnarounds value="true"/>
        <junctions.corner-detail value="5"/>
        <junctions.limit-turn-speed value="5.50"/>
        <rectangular-lane-cut value="0"/>
    </junctions>

    <pedestrian>
        <walkingareas value="0"/>
    </pedestrian>

</neteditConfiguration>
-->

<net version="1.20" junctionCornerDetail="5" limitTurnSpeed="5.50" avoidOverlap="0" xmlns:xsi="http://www.w3.org/2001/XMLSchema-instance" xsi:noNamespaceSchemaLocation="http://sumo.dlr.de/xsd/net_file.xsd">

    <location netOffset="-730728.26,-958849.07" convBoundary="0.00,0.00,5420.43,1950.35" origBoundary="77.096895,8.668315,77.146084,8.686027" projParameter="+proj=utm +zone=43 +ellps=WGS84 +datum=WGS84 +units=m +no_defs"/>

    <type id="highway.footway" priority="1" numLanes="1" speed="2.78" allow="pedestrian" oneway="1" width="2.00"/>
    <type id="highway.path" priority="1" numLanes="1" speed="5.56" allow="pedestrian bicycle" oneway="0" width="2.00"/>
    <type id="highway.residential" priority="3" numLanes="1" speed="13.89" disallow="tram rail_urban rail rail_electric rail_fast ship container cable_car subway aircraft wheelchair scooter drone" oneway="0"/>
    <type id="highway.service" priority="1" numLanes="1" speed="5.56" allow="pedestrian delivery bicycle" oneway="0"/>
    <type id="highway.steps" priority="1" numLanes="1" speed="1.39" allow="pedestrian" oneway="1" width="2.00"/>
    <type id="highway.tertiary" priority="10" numLanes="1" speed="22.22" disallow="tram rail_urban rail rail_electric rail_fast ship container cable_car subway aircraft wheelchair scooter drone" oneway="0"/>
    <type id="highway.unclassified" priority="4" numLanes="1" speed="13.89" disallow="tram rail_urban rail rail_electric rail_fast ship container cable_car subway aircraft wheelchair scooter drone" oneway="0"/>

    <edge id=":13266308380_0" function="internal">
        <lane id=":13266308380_0_0" index="0" disallow="tram rail_urban rail rail_electric rail_fast ship container cable_car subway aircraft wheelchair scooter drone" speed="5.97" length="9.09" shape="4244.56,1144.01 4242.30,1142.72 4240.36,1142.61 4238.76,1143.70 4237.48,1145.97"/>
    </edge>
    <edge id=":13266308380_1" function="internal">
        <lane id=":13266308380_1_0" index="0" speed="5.56" length="14.20" shape="4244.56,1144.01 4241.74,1141.71 4239.22,1139.29 4237.03,1136.61 4235.20,1133.50"/>
    </edge>
    <edge id=":13266308380_2" function="internal">
        <lane id=":13266308380_2_0" index="0" speed="3.65" length="4.67" shape="4244.56,1144.01 4244.10,1142.64 4244.28,1141.76 4245.08,1141.38 4246.52,1141.48"/>
    </edge>
    <edge id=":13266308380_3" function="internal">
        <lane id=":13266308380_3_0" index="0" speed="5.56" length="12.75" shape="4238.09,1132.11 4239.77,1135.04 4241.64,1137.33 4243.84,1139.36 4246.52,1141.48"/>
    </edge>
    <edge id=":13266308380_4" function="internal">
        <lane id=":13266308380_4_0" index="0" disallow="tram rail_urban rail rail_electric rail_fast ship container cable_car subway aircraft wheelchair scooter drone" speed="9.72" length="14.25" shape="4238.09,1132.11 4239.04,1135.03 4239.26,1138.31 4238.74,1141.96 4237.48,1145.97"/>
    </edge>
    <edge id=":13266308380_5" function="internal">
        <lane id=":13266308380_5_0" index="0" speed="3.65" length="4.67" shape="4238.09,1132.11 4237.89,1133.54 4237.34,1134.25 4236.45,1134.23 4235.20,1133.50"/>
    </edge>
    <edge id=":13266308380_6" function="internal">
        <lane id=":13266308380_6_0" index="0" disallow="tram rail_urban rail rail_electric rail_fast ship container cable_car subway aircraft wheelchair scooter drone" speed="9.72" length="11.63" shape="4234.50,1144.81 4235.57,1141.45 4236.05,1138.44 4235.93,1135.79 4235.20,1133.50"/>
    </edge>
    <edge id=":13266308380_7" function="internal">
        <lane id=":13266308380_7_0" index="0" disallow="tram rail_urban rail rail_electric rail_fast ship container cable_car subway aircraft wheelchair scooter drone" speed="7.58" length="15.43" shape="4234.50,1144.81 4236.66,1140.95 4239.39,1139.11 4242.68,1139.29 4246.52,1141.48"/>
    </edge>
    <edge id=":13266308380_8" function="internal">
        <lane id=":13266308380_8_0" index="0" disallow="tram rail_urban rail rail_electric rail_fast ship container cable_car subway aircraft wheelchair scooter drone" speed="3.65" length="4.67" shape="4234.50,1144.81 4235.68,1143.98 4236.57,1143.90 4237.17,1144.56 4237.48,1145.97"/>
    </edge>
    <edge id=":13266308385_0" function="internal">
        <lane id=":13266308385_0_0" index="0" disallow="tram rail_urban rail rail_electric rail_fast ship container cable_car subway aircraft wheelchair scooter drone" speed="3.65" length="4.67" shape="4148.65,1145.84 4148.46,1144.41 4148.79,1143.58 4149.66,1143.35 4151.05,1143.72"/>
    </edge>
    <edge id=":13266308390_0" function="internal">
        <lane id=":13266308390_0_0" index="0" speed="5.56" length="4.94" shape="4147.76,1471.65 4143.39,1473.98"/>
    </edge>
    <edge id=":13266308390_1" function="internal">
        <lane id=":13266308390_1_0" index="0" speed="3.65" length="4.67" shape="4147.76,1471.65 4146.32,1471.56 4145.57,1471.07 4145.52,1470.18 4146.15,1468.89"/>
    </edge>
    <edge id=":13266308390_2" function="internal">
        <lane id=":13266308390_2_0" index="0" speed="5.56" length="4.76" shape="4141.95,1471.12 4146.15,1468.89"/>
    </edge>
    <edge id=":13266308390_3" function="internal">
        <lane id=":13266308390_3_0" index="0" speed="3.65" length="4.67" shape="4141.95,1471.12 4143.38,1471.30 4144.10,1471.83 4144.10,1472.72 4143.39,1473.98"/>
    </edge>
    <edge id=":13266308395_0" function="internal">
        <lane id=":13266308395_0_0" index="0" disallow="tram rail_urban rail rail_electric rail_fast ship container cable_car subway aircraft wheelchair scooter drone" speed="13.89" length="5.30" shape="4135.51,1542.63 4130.74,1544.94"/>
    </edge>
    <edge id=":13266308395_1" function="internal">
        <lane id=":13266308395_1_0" index="0" disallow="tram rail_urban rail rail_electric rail_fast ship container cable_car subway aircraft wheelchair scooter drone" speed="13.89" length="5.12" shape="4129.44,1542.01 4134.05,1539.78"/>
    </edge>
    <edge id=":13266308397_0" function="internal">
        <lane id=":13266308397_0_0" index="0" disallow="tram rail_urban rail rail_electric rail_fast ship container cable_car subway aircraft wheelchair scooter drone" speed="5.92" length="9.10" shape="4159.55,1536.96 4158.80,1534.44 4157.47,1533.05 4155.56,1532.79 4153.08,1533.64"/>
    </edge>
    <edge id=":13266308397_1" function="internal">
        <lane id=":13266308397_1_0" index="0" disallow="tram rail_urban rail rail_electric rail_fast ship container cable_car subway aircraft wheelchair scooter drone" speed="9.91" length="14.80" shape="4159.55,1536.96 4159.30,1532.62 4159.95,1528.96 4161.52,1525.98 4163.99,1523.68"/>
    </edge>
    <edge id=":13266308397_2" function="internal">
        <lane id=":13266308397_2_0" index="0" disallow="tram rail_urban rail rail_electric rail_fast ship container cable_car subway aircraft wheelchair scooter drone" speed="3.65" length="4.67" shape="4159.55,1536.96 4160.16,1535.65 4160.89,1535.14 4161.75,1535.41 4162.72,1536.48"/>
    </edge>
    <edge id=":13266308397_3" function="internal">
        <lane id=":13266308397_3_0" index="0" disallow="tram rail_urban rail rail_electric rail_fast ship container cable_car subway aircraft wheelchair scooter drone" speed="8.67" length="11.18" shape="4165.77,1526.34 4164.02,1528.02 4162.92,1530.27 4162.49,1533.09 4162.72,1536.48"/>
    </edge>
    <edge id=":13266308397_4" function="internal">
        <lane id=":13266308397_4_0" index="0" disallow="tram rail_urban rail rail_electric rail_fast ship container cable_car subway aircraft wheelchair scooter drone" speed="13.89" length="14.65" shape="4165.77,1526.34 4162.66,1528.34 4159.54,1530.18 4156.36,1531.93 4153.08,1533.64"/>
    </edge>
    <edge id=":13266308397_5" function="internal">
        <lane id=":13266308397_5_0" index="0" disallow="tram rail_urban rail rail_electric rail_fast ship container cable_car subway aircraft wheelchair scooter drone" speed="3.65" length="1.44" shape="4165.77,1526.34 4164.33,1526.34"/>
    </edge>
    <edge id=":13266308397_9" function="internal">
        <lane id=":13266308397_9_0" index="0" disallow="tram rail_urban rail rail_electric rail_fast ship container cable_car subway aircraft wheelchair scooter drone" speed="3.65" length="3.23" shape="4164.33,1526.34 4163.55,1525.90 4163.44,1525.02 4163.99,1523.68"/>
    </edge>
    <edge id=":13266308397_6" function="internal">
        <lane id=":13266308397_6_0" index="0" disallow="tram rail_urban rail rail_electric rail_fast ship container cable_car subway aircraft wheelchair scooter drone" speed="13.89" length="14.27" shape="4151.62,1530.79 4154.85,1529.11 4157.92,1527.43 4160.93,1525.65 4163.99,1523.68"/>
    </edge>
    <edge id=":13266308397_7" function="internal">
        <lane id=":13266308397_7_0" index="0" disallow="tram rail_urban rail rail_electric rail_fast ship container cable_car subway aircraft wheelchair scooter drone" speed="7.55" length="4.39" shape="4151.62,1530.79 4155.77,1529.36"/>
    </edge>
    <edge id=":13266308397_8" function="internal">
        <lane id=":13266308397_8_0" index="0" disallow="tram rail_urban rail rail_electric rail_fast ship container cable_car subway aircraft wheelchair scooter drone" speed="3.65" length="1.44" shape="4151.62,1530.79 4153.06,1530.96"/>
    </edge>
    <edge id=":13266308397_10" function="internal">
        <lane id=":13266308397_10_0" index="0" disallow="tram rail_urban rail rail_electric rail_fast ship container cable_car subway aircraft wheelchair scooter drone" speed="7.55" length="11.21" shape="4155.77,1529.36 4155.88,1529.33 4159.14,1529.78 4161.42,1532.17 4162.72,1536.48"/>
    </edge>
    <edge id=":13266308397_11" function="internal">
        <lane id=":13266308397_11_0" index="0" disallow="tram rail_urban rail rail_electric rail_fast ship container cable_car subway aircraft wheelchair scooter drone" speed="3.65" length="3.23" shape="4153.06,1530.96 4153.78,1531.49 4153.79,1532.38 4153.08,1533.64"/>
    </edge>
    <edge id=":13266430007_0" function="internal">
        <lane id=":13266430007_0_0" index="0" disallow="tram rail_urban rail rail_electric rail_fast ship container cable_car subway aircraft wheelchair scooter drone" speed="13.89" length="13.92" shape="4135.05,1699.96 4133.76,1713.83"/>
    </edge>
    <edge id=":13266430007_1" function="internal">
        <lane id=":13266430007_1_0" index="0" disallow="tram rail_urban rail rail_electric rail_fast ship container cable_car subway aircraft wheelchair scooter drone" speed="8.00" length="3.84" shape="4135.05,1699.96 4134.02,1703.66"/>
    </edge>
    <edge id=":13266430007_2" function="internal">
        <lane id=":13266430007_2_0" index="0" disallow="tram rail_urban rail rail_electric rail_fast ship container cable_car subway aircraft wheelchair scooter drone" speed="3.65" length="1.44" shape="4135.05,1699.96 4134.10,1701.05"/>
    </edge>
    <edge id=":13266430007_9" function="internal">
        <lane id=":13266430007_9_0" index="0" disallow="tram rail_urban rail rail_electric rail_fast ship container cable_car subway aircraft wheelchair scooter drone" speed="8.00" length="10.20" shape="4134.02,1703.66 4132.06,1706.16 4129.16,1707.47 4125.32,1707.57"/>
    </edge>
    <edge id=":13266430007_10" function="internal">
        <lane id=":13266430007_10_0" index="0" disallow="tram rail_urban rail rail_electric rail_fast ship container cable_car subway aircraft wheelchair scooter drone" speed="3.65" length="3.23" shape="4134.10,1701.05 4133.26,1701.34 4132.52,1700.84 4131.88,1699.55"/>
    </edge>
    <edge id=":13266430007_3" function="internal">
        <lane id=":13266430007_3_0" index="0" disallow="tram rail_urban rail rail_electric rail_fast ship container cable_car subway aircraft wheelchair scooter drone" speed="6.51" length="8.93" shape="4125.69,1704.39 4128.13,1704.33 4129.97,1703.50 4131.22,1701.90 4131.88,1699.55"/>
    </edge>
    <edge id=":13266430007_4" function="internal">
        <lane id=":13266430007_4_0" index="0" disallow="tram rail_urban rail rail_electric rail_fast ship container cable_car subway aircraft wheelchair scooter drone" speed="8.12" length="13.98" shape="4125.69,1704.39 4129.40,1705.35 4131.98,1707.24 4133.43,1710.07 4133.76,1713.83"/>
    </edge>
    <edge id=":13266430007_5" function="internal">
        <lane id=":13266430007_5_0" index="0" disallow="tram rail_urban rail rail_electric rail_fast ship container cable_car subway aircraft wheelchair scooter drone" speed="3.65" length="4.67" shape="4125.69,1704.39 4126.79,1705.32 4127.09,1706.16 4126.61,1706.91 4125.32,1707.57"/>
    </edge>
    <edge id=":13266430007_6" function="internal">
        <lane id=":13266430007_6_0" index="0" disallow="tram rail_urban rail rail_electric rail_fast ship container cable_car subway aircraft wheelchair scooter drone" speed="6.65" length="9.04" shape="4130.57,1713.65 4130.35,1711.23 4129.41,1709.41 4127.73,1708.19 4125.32,1707.57"/>
    </edge>
    <edge id=":13266430007_7" function="internal">
        <lane id=":13266430007_7_0" index="0" disallow="tram rail_urban rail rail_electric rail_fast ship container cable_car subway aircraft wheelchair scooter drone" speed="13.89" length="14.16" shape="4130.57,1713.65 4131.88,1699.55"/>
    </edge>
    <edge id=":13266430007_8" function="internal">
        <lane id=":13266430007_8_0" index="0" disallow="tram rail_urban rail rail_electric rail_fast ship container cable_car subway aircraft wheelchair scooter drone" speed="3.65" length="1.44" shape="4130.57,1713.65 4131.43,1712.49"/>
    </edge>
    <edge id=":13266430007_11" function="internal">
        <lane id=":13266430007_11_0" index="0" disallow="tram rail_urban rail rail_electric rail_fast ship container cable_car subway aircraft wheelchair scooter drone" speed="3.65" length="3.23" shape="4131.43,1712.49 4132.25,1712.14 4133.03,1712.58 4133.76,1713.83"/>
    </edge>
    <edge id=":13266430009_0" function="internal">
        <lane id=":13266430009_0_0" index="0" disallow="tram rail_urban rail rail_electric rail_fast ship container cable_car subway aircraft wheelchair scooter drone" speed="3.65" length="4.67" shape="4145.83,1725.25 4146.30,1726.61 4146.13,1727.49 4145.33,1727.88 4143.89,1727.79"/>
    </edge>
    <edge id=":13266430014_0" function="internal">
        <lane id=":13266430014_0_0" index="0" speed="5.56" length="15.18" shape="3929.32,1790.69 3917.89,1780.70"/>
    </edge>
    <edge id=":13266430014_1" function="internal">
        <lane id=":13266430014_1_0" index="0" disallow="tram rail_urban rail rail_electric rail_fast ship container cable_car subway aircraft wheelchair scooter drone" speed="7.50" length="16.40" shape="3929.32,1790.69 3926.24,1786.88 3925.55,1783.55 3927.26,1780.68 3931.38,1778.28"/>
    </edge>
    <edge id=":13266430014_2" function="internal">
        <lane id=":13266430014_2_0" index="0" speed="3.65" length="4.68" shape="3929.32,1790.69 3928.91,1789.30 3929.11,1788.43 3929.93,1788.07 3931.37,1788.22"/>
    </edge>
    <edge id=":13266430014_3" function="internal">
        <lane id=":13266430014_3_0" index="0" disallow="tram rail_urban rail rail_electric rail_fast ship container cable_car subway aircraft wheelchair scooter drone" speed="5.80" length="9.23" shape="3932.58,1781.25 3930.25,1782.60 3929.27,1784.21 3929.65,1786.09 3931.37,1788.22"/>
    </edge>
    <edge id=":13266430014_4" function="internal">
        <lane id=":13266430014_4_0" index="0" disallow="tram rail_urban rail rail_electric rail_fast ship container cable_car subway aircraft wheelchair scooter drone" speed="9.72" length="15.43" shape="3932.58,1781.25 3928.14,1782.65 3924.21,1783.02 3920.80,1782.37 3917.89,1780.70"/>
    </edge>
    <edge id=":13266430014_5" function="internal">
        <lane id=":13266430014_5_0" index="0" disallow="tram rail_urban rail rail_electric rail_fast ship container cable_car subway aircraft wheelchair scooter drone" speed="3.65" length="4.67" shape="3932.58,1781.25 3931.17,1780.96 3930.50,1780.37 3930.57,1779.48 3931.38,1778.28"/>
    </edge>
    <edge id=":13266430014_6" function="internal">
        <lane id=":13266430014_6_0" index="0" disallow="tram rail_urban rail rail_electric rail_fast ship container cable_car subway aircraft wheelchair scooter drone" speed="9.23" length="11.99" shape="3919.93,1778.23 3922.08,1779.42 3924.70,1779.82 3927.80,1779.45 3931.38,1778.28"/>
    </edge>
    <edge id=":13266430014_7" function="internal">
        <lane id=":13266430014_7_0" index="0" speed="5.56" length="15.18" shape="3919.93,1778.23 3931.37,1788.22"/>
    </edge>
    <edge id=":13266430014_8" function="internal">
        <lane id=":13266430014_8_0" index="0" speed="3.65" length="4.67" shape="3919.93,1778.23 3920.35,1779.61 3920.15,1780.48 3919.33,1780.84 3917.89,1780.70"/>
    </edge>
    <edge id=":13266430017_0" function="internal">
        <lane id=":13266430017_0_0" index="0" disallow="tram rail_urban rail rail_electric rail_fast ship container cable_car subway aircraft wheelchair scooter drone" speed="6.83" length="12.23" shape="4234.65,1618.96 4232.11,1616.75 4229.62,1616.18 4227.17,1617.27 4224.78,1619.99"/>
    </edge>
    <edge id=":13266430017_1" function="internal">
        <lane id=":13266430017_1_0" index="0" disallow="tram rail_urban rail rail_electric rail_fast ship container cable_car subway aircraft wheelchair scooter drone" speed="12.00" length="17.64" shape="4234.65,1618.96 4231.42,1615.92 4227.72,1613.88 4223.54,1612.83 4218.88,1612.76"/>
    </edge>
    <edge id=":13266430017_2" function="internal">
        <lane id=":13266430017_2_0" index="0" disallow="tram rail_urban rail rail_electric rail_fast ship container cable_car subway aircraft wheelchair scooter drone" speed="7.38" length="17.41" shape="4234.65,1618.96 4231.76,1614.50 4231.56,1611.12 4234.05,1608.83 4239.23,1607.63"/>
    </edge>
    <edge id=":13266430017_3" function="internal">
        <lane id=":13266430017_3_0" index="0" disallow="tram rail_urban rail rail_electric rail_fast ship container cable_car subway aircraft wheelchair scooter drone" speed="3.65" length="4.67" shape="4234.65,1618.96 4234.49,1617.53 4234.84,1616.71 4235.71,1616.49 4237.09,1616.89"/>
    </edge>
    <edge id=":13266430017_4" function="internal">
        <lane id=":13266430017_4_0" index="0" disallow="tram rail_urban rail rail_electric rail_fast ship container cable_car subway aircraft wheelchair scooter drone" speed="5.59" length="9.34" shape="4239.55,1610.82 4236.77,1611.46 4235.44,1612.69 4235.54,1614.50 4237.09,1616.89"/>
    </edge>
    <edge id=":13266430017_5" function="internal">
        <lane id=":13266430017_5_0" index="0" disallow="tram rail_urban rail rail_electric rail_fast ship container cable_car subway aircraft wheelchair scooter drone" speed="12.78" length="17.98" shape="4239.55,1610.82 4235.15,1611.74 4231.22,1613.58 4227.77,1616.33 4224.78,1619.99"/>
    </edge>
    <edge id=":13266430017_6" function="internal">
        <lane id=":13266430017_6_0" index="0" disallow="tram rail_urban rail rail_electric rail_fast ship container cable_car subway aircraft wheelchair scooter drone" speed="13.89" length="20.77" shape="4239.55,1610.82 4218.88,1612.76"/>
    </edge>
    <edge id=":13266430017_7" function="internal">
        <lane id=":13266430017_7_0" index="0" disallow="tram rail_urban rail rail_electric rail_fast ship container cable_car subway aircraft wheelchair scooter drone" speed="3.65" length="1.44" shape="4239.55,1610.82 4238.28,1610.14"/>
    </edge>
    <edge id=":13266430017_16" function="internal">
        <lane id=":13266430017_16_0" index="0" disallow="tram rail_urban rail rail_electric rail_fast ship container cable_car subway aircraft wheelchair scooter drone" speed="3.65" length="3.23" shape="4238.28,1610.14 4237.80,1609.38 4238.12,1608.55 4239.23,1607.63"/>
    </edge>
    <edge id=":13266430017_8" function="internal">
        <lane id=":13266430017_8_0" index="0" disallow="tram rail_urban rail rail_electric rail_fast ship container cable_car subway aircraft wheelchair scooter drone" speed="13.89" length="20.73" shape="4218.60,1609.58 4239.23,1607.63"/>
    </edge>
    <edge id=":13266430017_9" function="internal">
        <lane id=":13266430017_9_0" index="0" disallow="tram rail_urban rail rail_electric rail_fast ship container cable_car subway aircraft wheelchair scooter drone" speed="12.97" length="5.73" shape="4218.60,1609.58 4224.05,1609.65 4224.31,1609.72"/>
    </edge>
    <edge id=":13266430017_10" function="internal">
        <lane id=":13266430017_10_0" index="0" disallow="tram rail_urban rail rail_electric rail_fast ship container cable_car subway aircraft wheelchair scooter drone" speed="7.38" length="5.42" shape="4218.60,1609.58 4224.01,1609.76"/>
    </edge>
    <edge id=":13266430017_11" function="internal">
        <lane id=":13266430017_11_0" index="0" disallow="tram rail_urban rail rail_electric rail_fast ship container cable_car subway aircraft wheelchair scooter drone" speed="3.65" length="1.44" shape="4218.60,1609.58 4219.86,1610.27"/>
    </edge>
    <edge id=":13266430017_17" function="internal">
        <lane id=":13266430017_17_0" index="0" disallow="tram rail_urban rail rail_electric rail_fast ship container cable_car subway aircraft wheelchair scooter drone" speed="12.97" length="14.97" shape="4224.31,1609.72 4228.95,1610.90 4233.30,1613.31 4237.09,1616.89"/>
    </edge>
    <edge id=":13266430017_18" function="internal">
        <lane id=":13266430017_18_0" index="0" disallow="tram rail_urban rail rail_electric rail_fast ship container cable_car subway aircraft wheelchair scooter drone" speed="7.38" length="12.65" shape="4224.01,1609.76 4224.21,1609.77 4227.11,1611.56 4227.31,1614.97 4224.78,1619.99"/>
    </edge>
    <edge id=":13266430017_19" function="internal">
        <lane id=":13266430017_19_0" index="0" disallow="tram rail_urban rail rail_electric rail_fast ship container cable_car subway aircraft wheelchair scooter drone" speed="3.65" length="3.23" shape="4219.86,1610.27 4220.33,1611.03 4220.00,1611.86 4218.88,1612.76"/>
    </edge>
    <edge id=":13266430017_12" function="internal">
        <lane id=":13266430017_12_0" index="0" disallow="tram rail_urban rail rail_electric rail_fast ship container cable_car subway aircraft wheelchair scooter drone" speed="5.53" length="9.46" shape="4222.12,1618.22 4223.44,1615.59 4223.34,1613.81 4221.82,1612.86 4218.88,1612.76"/>
    </edge>
    <edge id=":13266430017_13" function="internal">
        <lane id=":13266430017_13_0" index="0" disallow="tram rail_urban rail rail_electric rail_fast ship container cable_car subway aircraft wheelchair scooter drone" speed="13.73" length="20.81" shape="4222.12,1618.22 4225.56,1613.99 4229.56,1610.82 4234.12,1608.70 4239.23,1607.63"/>
    </edge>
    <edge id=":13266430017_14" function="internal">
        <lane id=":13266430017_14_0" index="0" disallow="tram rail_urban rail rail_electric rail_fast ship container cable_car subway aircraft wheelchair scooter drone" speed="8.28" length="18.53" shape="4222.12,1618.22 4225.71,1614.15 4229.41,1612.57 4233.20,1613.48 4237.09,1616.89"/>
    </edge>
    <edge id=":13266430017_15" function="internal">
        <lane id=":13266430017_15_0" index="0" disallow="tram rail_urban rail rail_electric rail_fast ship container cable_car subway aircraft wheelchair scooter drone" speed="3.65" length="4.67" shape="4222.12,1618.22 4223.45,1617.67 4224.34,1617.78 4224.78,1618.55 4224.78,1619.99"/>
    </edge>
    <edge id=":13266430020_0" function="internal">
        <lane id=":13266430020_0_0" index="0" disallow="tram rail_urban rail rail_electric rail_fast ship container cable_car subway aircraft wheelchair scooter drone" speed="13.89" length="15.89" shape="4131.17,1684.71 4130.71,1680.84 4130.19,1676.80 4129.45,1672.82 4128.33,1669.12"/>
    </edge>
    <edge id=":13266430020_1" function="internal">
        <lane id=":13266430020_1_0" index="0" disallow="tram rail_urban rail rail_electric rail_fast ship container cable_car subway aircraft wheelchair scooter drone" speed="11.71" length="3.62" shape="4131.17,1684.71 4131.31,1681.44 4131.43,1681.12"/>
    </edge>
    <edge id=":13266430020_2" function="internal">
        <lane id=":13266430020_2_0" index="0" disallow="tram rail_urban rail rail_electric rail_fast ship container cable_car subway aircraft wheelchair scooter drone" speed="3.65" length="1.44" shape="4131.17,1684.71 4131.81,1683.42"/>
    </edge>
    <edge id=":13266430020_9" function="internal">
        <lane id=":13266430020_9_0" index="0" disallow="tram rail_urban rail rail_electric rail_fast ship container cable_car subway aircraft wheelchair scooter drone" speed="11.71" length="12.72" shape="4131.43,1681.12 4132.57,1678.01 4134.94,1674.42 4138.42,1670.68"/>
    </edge>
    <edge id=":13266430020_10" function="internal">
        <lane id=":13266430020_10_0" index="0" disallow="tram rail_urban rail rail_electric rail_fast ship container cable_car subway aircraft wheelchair scooter drone" speed="3.65" length="3.23" shape="4131.81,1683.42 4132.55,1682.92 4133.40,1683.22 4134.34,1684.31"/>
    </edge>
    <edge id=":13266430020_3" function="internal">
        <lane id=":13266430020_3_0" index="0" disallow="tram rail_urban rail rail_electric rail_fast ship container cable_car subway aircraft wheelchair scooter drone" speed="10.62" length="13.35" shape="4140.62,1673.00 4137.64,1676.16 4135.61,1679.09 4134.50,1681.81 4134.34,1684.31"/>
    </edge>
    <edge id=":13266430020_4" function="internal">
        <lane id=":13266430020_4_0" index="0" disallow="tram rail_urban rail rail_electric rail_fast ship container cable_car subway aircraft wheelchair scooter drone" speed="7.61" length="16.50" shape="4140.62,1673.00 4136.89,1675.56 4133.60,1675.77 4130.75,1673.62 4128.33,1669.12"/>
    </edge>
    <edge id=":13266430020_5" function="internal">
        <lane id=":13266430020_5_0" index="0" disallow="tram rail_urban rail rail_electric rail_fast ship container cable_car subway aircraft wheelchair scooter drone" speed="3.65" length="4.67" shape="4140.62,1673.00 4139.20,1673.25 4138.36,1672.94 4138.10,1672.08 4138.42,1670.68"/>
    </edge>
    <edge id=":13266430020_6" function="internal">
        <lane id=":13266430020_6_0" index="0" disallow="tram rail_urban rail rail_electric rail_fast ship container cable_car subway aircraft wheelchair scooter drone" speed="5.82" length="9.11" shape="4131.60,1668.69 4132.92,1671.13 4134.50,1672.28 4136.33,1672.13 4138.42,1670.68"/>
    </edge>
    <edge id=":13266430020_7" function="internal">
        <lane id=":13266430020_7_0" index="0" disallow="tram rail_urban rail rail_electric rail_fast ship container cable_car subway aircraft wheelchair scooter drone" speed="13.89" length="15.90" shape="4131.60,1668.69 4132.70,1672.40 4133.41,1676.39 4133.90,1680.43 4134.34,1684.31"/>
    </edge>
    <edge id=":13266430020_8" function="internal">
        <lane id=":13266430020_8_0" index="0" disallow="tram rail_urban rail rail_electric rail_fast ship container cable_car subway aircraft wheelchair scooter drone" speed="3.69" length="1.48" shape="4131.60,1668.69 4130.94,1670.02"/>
    </edge>
    <edge id=":13266430020_11" function="internal">
        <lane id=":13266430020_11_0" index="0" disallow="tram rail_urban rail rail_electric rail_fast ship container cable_car subway aircraft wheelchair scooter drone" speed="3.69" length="3.33" shape="4130.94,1670.02 4130.18,1670.53 4129.31,1670.23 4128.33,1669.12"/>
    </edge>
    <edge id=":13266430021_0" function="internal">
        <lane id=":13266430021_0_0" index="0" disallow="tram rail_urban rail rail_electric rail_fast ship container cable_car subway aircraft wheelchair scooter drone" speed="13.89" length="15.47" shape="4243.29,1552.21 4240.51,1537.00"/>
    </edge>
    <edge id=":13266430021_1" function="internal">
        <lane id=":13266430021_1_0" index="0" disallow="tram rail_urban rail rail_electric rail_fast ship container cable_car subway aircraft wheelchair scooter drone" speed="7.40" length="16.94" shape="4243.29,1552.21 4243.04,1547.11 4244.53,1544.10 4247.76,1543.18 4252.73,1544.34"/>
    </edge>
    <edge id=":13266430021_2" function="internal">
        <lane id=":13266430021_2_0" index="0" disallow="tram rail_urban rail rail_electric rail_fast ship container cable_car subway aircraft wheelchair scooter drone" speed="3.65" length="4.67" shape="4243.29,1552.21 4243.86,1550.89 4244.58,1550.35 4245.43,1550.60 4246.44,1551.64"/>
    </edge>
    <edge id=":13266430021_3" function="internal">
        <lane id=":13266430021_3_0" index="0" disallow="tram rail_urban rail rail_electric rail_fast ship container cable_car subway aircraft wheelchair scooter drone" speed="5.65" length="9.26" shape="4251.60,1547.34 4248.88,1546.70 4247.12,1547.20 4246.30,1548.85 4246.44,1551.64"/>
    </edge>
    <edge id=":13266430021_4" function="internal">