<configuration>
    <input>
        <net-file value="small_map.net.xml"/>
        <route-files value="small_routes.rou.xml"/>
    </input>
    <time>
        <begin value="0"/>
        <end value="1000"/>
    </time>
</configuration>